##TITLE=84-74-2
##JCAMPDX= 6.0         $$ Bruker NMR JCAMP-DX V2.0
##DATA TYPE= nD NMR SPECTRUM
##DATA CLASS= NTUPLES
##NUM DIM= 2
##ORIGIN= BRUKER
##OWNER= daeby
$$ 1.83.2.2 TOPSPIN		Version 3.1
$$ 2013-05-28 20:25:26.985 +0200  automation@nmrf492l
$$ Compression mode = diff/dup
##.OBSERVE FREQUENCY= 400.08184296641
##.OBSERVE NUCLEUS= ^1H
##.ACQUISITION MODE= SIMULTANEOUS (DQD)
##.ACQUISITION SCHEME= NOT PHASE SENSITIVE
##.AVERAGES= 1
##.DIGITISER RES= 23
##SPECTROMETER/DATA SYSTEM= spect
##.PULSE SEQUENCE= cosygpppqf
##.SOLVENT NAME= CDCl3
##.SHIFT REFERENCE= INTERNAL, CDCl3, 1, 8.915977
##AUDIT TRAIL= $$ (NUMBER, WHEN, WHO, WHERE, PROCESS, VERSION, WHAT)
$$ ##TITLE= Audit trail, TOPSPIN		Version 3.1
$$ ##JCAMPDX= 5.01
$$ ##ORIGIN= Bruker BioSpin GmbH
$$ ##OWNER= automation
$$ $$ /opt/data/daeby/nmr/84-74-2/13/pdata/1/auditp.txt
$$ ##AUDIT TRAIL=  $$ (NUMBER, WHEN, WHO, WHERE, PROCESS, VERSION, WHAT)
(   1,<2013-05-28 20:25:21.681 +0200>,<automation>,<nmrf492l>,<go>,<TOPSPIN 3.1>,
      <created by zg
	started at 2013-05-28 20:20:14.164 +0200,
	POWCHK enabled, PULCHK disabled,
       configuration hash MD5:
       62 CD E7 62 13 96 18 BD D3 76 DF 34 F8 DB 97 17
       data hash MD5: 2K * 128
       1C 18 D0 8B D9 36 9E A5 F6 5D 65 E3 7D 74 6B EE>)
(   2,<2013-05-28 20:25:25.672 +0200>,<automation>,<nmrf492l>,<audit>,<TOPSPIN 3.1>,
      <user comment:
       ICON-NMR User ID: daeby
       data hash MD5: 2K * 128
       1C 18 D0 8B D9 36 9E A5 F6 5D 65 E3 7D 74 6B EE>)
(   3,<2013-05-28 20:25:26.294 +0200>,<automation>,<nmrf492l>,<proc2d>,<TOPSPIN 3.1>,
      <Start of raw data processing
       xfb same F2: SI = 1K WDW = 4 SSB = 0 FT_mod = 6 PKNL = 1 F1: SI = 1K ME_mod = 2 NCOEF = 32 WDW = 4 SSB = 0 FT_mod = 6 PH_mod = 2
       data hash MD5: 1K * 1K
       56 31 C7 42 79 C9 80 E4 1E C6 C1 D0 86 DD F0 A7>)
(   4,<2013-05-28 20:25:26.452 +0200>,<automation>,<nmrf492l>,<proc2d>,<TOPSPIN 3.1>,
      <abs2 F2: ABSG = 5 ABSF1 = 8.915977 ABSF2 = 0.2970107
       data hash MD5: 1K * 1K
       95 7B CD 4F CD 01 54 4E 5D FA 65 6E 90 C3 C3 F6>)
(   5,<2013-05-28 20:25:26.538 +0200>,<automation>,<nmrf492l>,<proc2d>,<TOPSPIN 3.1>,
      <abs1 F1: ABSG = 5 ABSF1 = 8.915977 ABSF2 = 0.2970107
       data hash MD5: 1K * 1K
       46 8B 6A A3 D2 14 98 43 BA 5E 28 BD 45 BC 38 D7>)
(   6,<2013-05-28 20:25:26.572 +0200>,<automation>,<nmrf492l>,<proc2d>,<TOPSPIN 3.1>,
      <sym
       data hash MD5: 1K * 1K
       35 9E DD 59 33 FF 6E DB 28 D0 7A A5 D5 E3 79 B2>)
$$ ##END=
$$ 
$$ $$ hash MD5
$$ $$ 92 4B 0F 16 FD 73 24 88 6D 29 A2 41 22 84 F1 55
##$RELAX= 
##$BRUKER FILE EXP=format.temp
$$ EDIT_PAR COMMAND FILE
$$ 
$$ DI_MODE         LONG
$$ ED_ENTRY        ACQU
$$ ORDER           FILE
$$ 
$$ 
$$ HEADER		"F2 - Acquisition Parameters"
$$ T_NAME		Date_
$$ 		TYPE	R64
$$ 		CLASS	ACQU
$$ 		SUBRANGE 0.0 50000000
$$ 		REL	"Date_=itodate(DATE)"
$$ 		INV_REL	"DATE=datetoi(Date_,DATE)"
$$ 		FORMAT	"%14.0f"
$$ 		TEXT	" "
$$ END
$$ T_NAME		Time
$$ 		TYPE	R32
$$ 		CLASS	ACQU
$$ 		SUBRANGE 0.0 1000000
$$ 		REL	"Time=itotime(DATE)"
$$ 		INV_REL	"DATE=timetoi(Time,DATE)"
$$ 		FORMAT	"%14.2f"
$$ 		TEXT	" "
$$ END
$$ NAME		INSTRUM
$$ 		TEXT	" "
$$ END
$$ NAME		PROBHD
$$ 		FORMAT	"%14.14s"
$$ 		TEXT	" "
$$ END
$$ NAME		PULPROG
$$ 		TEXT	" "
$$ END
$$ NAME		TD
$$ 		TEXT	" "
$$ END
$$ NAME		SOLVENT
$$ 		TEXT	" "
$$ END
$$ NAME		NS
$$ 		TEXT	" "
$$ END
$$ NAME		DS
$$ 		TEXT	" "
$$ END
$$ T_NAME		SWH
$$ 		TYPE	R32
$$ 		CLASS	ACQU
$$ 		SUBRANGE 0.0 1e8
$$ 		REL	"SWH=SW*SFO1"
$$ 		INV_REL "SW=SWH/SFO1"
$$ 		UNIT	"Hz"
$$ 		FORMAT	"%14.3f Hz"
$$ 		TEXT	" "
$$ END
$$ T_NAME          FIDRES
$$                 TYPE    R32
$$                 CLASS   ACQU
$$                 SUBRANGE 0.0 100000
$$                 REL     "FIDRES=SW*SFO1/TD"
$$                 INV_REL "TD = nextpow(SW*SFO1/FIDRES)"
$$ 		UNIT	"Hz"
$$ 		FORMAT	"%14.6f Hz"
$$ 		TEXT	" "
$$ END
$$ T_NAME          AQ
$$ 		TYPE	R32
$$ 		CLASS	ACQU
$$ 		SUBRANGE 0.0 1000
$$ 		REL	"AQ=aqcalc(SW,SFO1,TD,DIGTYP)"
$$ 		INV_REL	"TD=tdcalc(SW,SFO1,1.0e6*AQ,DIGTYP)"
$$ 		UNIT	"sec"
$$ 		FORMAT	"%14.7f sec"
$$ 		TEXT	" "
$$ END
$$ NAME		RG
$$ 		TEXT	" "
$$ END
$$ T_NAME          DW
$$ 		TYPE	R32
$$ 		CLASS	ACQU
$$ 		SUBRANGE 0.0 1000000
$$ 		REL	"DW=1/(2*SW*SFO1)"
$$ 		INV_REL	"SW=1000000/(2*(0.005+DW)*SFO1)"
$$ 		UNIT	"usec"
$$ 		FORMAT	"%14.3lf usec"
$$ 		TEXT	" "
$$ END
$$ NAME		DE
$$ 		FORMAT	"%14.2f usec"
$$ 		TEXT	" "
$$ END
$$ NAME		TE
$$ 		FORMAT	"%14.1f K"
$$ 		TEXT	" "
$$ END
$$ T_NAME		D0
$$ 		TYPE	R32
$$ 		CLASS	ACQU
$$ 		SUBRANGE 0.0 1e38
$$ 		REL	"D0=D[0]"
$$ 		INV_REL	"D[0]=D0"
$$ 		UNIT	"sec"
$$ 		FORMAT	"%14.8f sec"
$$ 		TEXT	" "
$$ END
$$ T_NAME		D1
$$ 		TYPE	R32
$$ 		CLASS	ACQU
$$ 		SUBRANGE 0.0 1e38
$$ 		REL	"D1=D[1]"
$$ 		INV_REL	"D[1]=D1"
$$ 		UNIT	"sec"
$$ 		FORMAT	"%14.8f sec"
$$ 		TEXT	" "
$$ END
$$ T_NAME		D11
$$ 		TYPE	R32
$$ 		CLASS	ACQU
$$ 		SUBRANGE 0.0 1e38
$$ 		REL	"D11=D[11]"
$$ 		INV_REL	"D[11]=D11"
$$ 		UNIT	"sec"
$$ 		FORMAT	"%14.8f sec"
$$ 		TEXT	" "
$$ END
$$ T_NAME		D12
$$ 		TYPE	R32
$$ 		CLASS	ACQU
$$ 		SUBRANGE 0.0 1e38
$$ 		REL	"D12=D[12]"
$$ 		INV_REL	"D[12]=D12"
$$ 		UNIT	"sec"
$$ 		FORMAT	"%14.8f sec"
$$ 		TEXT	" "
$$ END
$$ T_NAME		D13
$$ 		TYPE	R32
$$ 		CLASS	ACQU
$$ 		SUBRANGE 0.0 1e38
$$ 		REL	"D13=D[13]"
$$ 		INV_REL	"D[13]=D13"
$$ 		UNIT	"sec"
$$ 		FORMAT	"%14.8f sec"
$$ 		TEXT	" "
$$ END
$$ T_NAME		D16
$$ 		TYPE	R32
$$ 		CLASS	ACQU
$$ 		SUBRANGE 0.0 1e38
$$ 		REL	"D16=D[16]"
$$ 		INV_REL	"D[16]=D16"
$$ 		UNIT	"sec"
$$ 		FORMAT	"%14.8f sec"
$$ 		TEXT	" "
$$ END
$$ T_NAME		IN0
$$ 		TYPE	R32
$$ 		CLASS	ACQU
$$ 		SUBRANGE 0.0 1e38
$$ 		REL	"IN0=IN[0]"
$$ 		INV_REL	"IN[0]=IN0"
$$ 		UNIT	"sec"
$$ 		FORMAT	"%14.8f sec"
$$ 		TEXT	" "
$$ END
$$ HEADER		"======== CHANNEL f1 ========"
$$ NAME		SFO1
$$ 		FORMAT	"%14.7f MHz"
$$ 		TEXT	" "
$$ END
$$ NAME		NUC1
$$ 		NONEDIT
$$ 		TEXT	" "
$$ END
$$ T_NAME		P0
$$ 		TYPE	R32
$$ 		CLASS	ACQU
$$ 		SUBRANGE 0.0 1.0e10
$$ 		REL	"P0=P[0]"
$$ 		INV_REL	"P[0]=P0"
$$ 		UNIT	"usec"
$$ 		FORMAT	"%14.2f usec"
$$ 		TEXT	" "
$$ END
$$ T_NAME		P1
$$ 		TYPE	R32
$$ 		CLASS	ACQU
$$ 		SUBRANGE 0.0 1.0e10
$$ 		REL	"P1=P[1]"
$$ 		INV_REL	"P[1]=P1"
$$ 		UNIT	"usec"
$$ 		FORMAT	"%14.2f usec"
$$ 		TEXT	" "
$$ END
$$ T_NAME		P17
$$ 		TYPE	R32
$$ 		CLASS	ACQU
$$ 		SUBRANGE 0.0 1.0e10
$$ 		REL	"P17=P[17]"
$$ 		INV_REL	"P[17]=P17"
$$ 		UNIT	"usec"
$$ 		FORMAT	"%14.2f usec"
$$ 		TEXT	" "
$$ END
$$ T_NAME		PLW1
$$ 		TYPE	R32
$$ 		CLASS	ACQU
$$ 		SUBRANGE 0 34.9878
$$ 		REL	"PLW1=PLW[1]"
$$ 		INV_REL	"PLW[1]=PLW1"
$$ 		UNIT	"W"
$$ 		FORMAT	"%14.8f W"
$$ 		TEXT	"power PLW1 "
$$ END
$$ T_NAME		PLW10
$$ 		TYPE	R32
$$ 		CLASS	ACQU
$$ 		SUBRANGE 0 34.9878
$$ 		REL	"PLW10=PLW[10]"
$$ 		INV_REL	"PLW[10]=PLW10"
$$ 		UNIT	"W"
$$ 		FORMAT	"%14.8f W"
$$ 		TEXT	"power PLW10 "
$$ END
$$ HEADER		"====== GRADIENT CHANNEL ====="
$$ NAME		GPNAM[1]
$$ 		TEXT	" "
$$ END
$$ T_NAME		GPZ1
$$ 		TYPE	R32
$$ 		CLASS	ACQU
$$ 		SUBRANGE -100.0 100.0
$$ 		REL	"GPZ1=GPZ[1]"
$$ 		INV_REL	"GPZ[1]=GPZ1"
$$ 		UNIT	"%"
$$ 		FORMAT	"%14.2f %"
$$ 		TEXT	" "
$$ END
$$ T_NAME		P16
$$ 		TYPE	R32
$$ 		CLASS	ACQU
$$ 		SUBRANGE 0.0 1.0e10
$$ 		REL	"P16=P[16]"
$$ 		INV_REL	"P[16]=P16"
$$ 		UNIT	"usec"
$$ 		FORMAT	"%14.2f usec"
$$ 		TEXT	" "
$$ END
##$RELAX= 
##$BRUKER FILE EXP=fq1list
$$ O 400.081651
$$ -3500000
$$ -3480469
$$ -3460938
$$ -3441406
$$ -3421875
$$ -3402344
$$ -3382812
$$ -3363281
$$ -3343750
$$ -3324219
$$ -3304688
$$ -3285156
$$ -3265625
$$ -3246094
$$ -3226562
$$ -3207031
$$ -3187500
$$ -3167969
$$ -3148438
$$ -3128906
$$ -3109375
$$ -3089844
$$ -3070312
$$ -3050781
$$ -3031250
$$ -3011719
$$ -2992188
$$ -2972656
$$ -2953125
$$ -2933594
$$ -2914062
$$ -2894531
$$ -2875000
$$ -2855469
$$ -2835938
$$ -2816406
$$ -2796875
$$ -2777344
$$ -2757812
$$ -2738281
$$ -2718750
$$ -2699219
$$ -2679688
$$ -2660156
$$ -2640625
$$ -2621094
$$ -2601562
$$ -2582031
$$ -2562500
$$ -2542969
$$ -2523438
$$ -2503906
$$ -2484375
$$ -2464844
$$ -2445312
$$ -2425781
$$ -2406250
$$ -2386719
$$ -2367188
$$ -2347656
$$ -2328125
$$ -2308594
$$ -2289062
$$ -2269531
$$ -2250000
$$ -2230469
$$ -2210938
$$ -2191406
$$ -2171875
$$ -2152344
$$ -2132812
$$ -2113281
$$ -2093750
$$ -2074219
$$ -2054688
$$ -2035156
$$ -2015625
$$ -1996094
$$ -1976562
$$ -1957031
$$ -1937500
$$ -1917969
$$ -1898438
$$ -1878906
$$ -1859375
$$ -1839844
$$ -1820312
$$ -1800781
$$ -1781250
$$ -1761719
$$ -1742188
$$ -1722656
$$ -1703125
$$ -1683594
$$ -1664062
$$ -1644531
$$ -1625000
$$ -1605469
$$ -1585938
$$ -1566406
$$ -1546875
$$ -1527344
$$ -1507812
$$ -1488281
$$ -1468750
$$ -1449219
$$ -1429688
$$ -1410156
$$ -1390625
$$ -1371094
$$ -1351562
$$ -1332031
$$ -1312500
$$ -1292969
$$ -1273438
$$ -1253906
$$ -1234375
$$ -1214844
$$ -1195312
$$ -1175781
$$ -1156250
$$ -1136719
$$ -1117188
$$ -1097656
$$ -1078125
$$ -1058594
$$ -1039062
$$ -1019531
$$ -1000000
$$  -992157
$$  -984314
$$  -976471
$$  -968627
$$  -960784
$$  -952941
$$  -945098
$$  -937255
$$  -929412
$$  -921569
$$  -913725
$$  -905882
$$  -898039
$$  -890196
$$  -882353
$$  -874510
$$  -866667
$$  -858824
$$  -850980
$$  -843137
$$  -835294
$$  -827451
$$  -819608
$$  -811765
$$  -803922
$$  -796078
$$  -788235
$$  -780392
$$  -772549
$$  -764706
$$  -756863
$$  -749020
$$  -741176
$$  -733333
$$  -725490
$$  -717647
$$  -709804
$$  -701961
$$  -694118
$$  -686275
$$  -678431
$$  -670588
$$  -662745
$$  -654902
$$  -647059
$$  -639216
$$  -631373
$$  -623529
$$  -615686
$$  -607843
$$  -600000
$$  -592157
$$  -584314
$$  -576471
$$  -568627
$$  -560784
$$  -552941
$$  -545098
$$  -537255
$$  -529412
$$  -521569
$$  -513725
$$  -505882
$$  -498039
$$  -490196
$$  -482353
$$  -474510
$$  -466667
$$  -458824
$$  -450980
$$  -443137
$$  -435294
$$  -427451
$$  -419608
$$  -411765
$$  -403922
$$  -396078
$$  -388235
$$  -380392
$$  -372549
$$  -364706
$$  -356863
$$  -349020
$$  -341176
$$  -333333
$$  -325490
$$  -317647
$$  -309804
$$  -301961
$$  -294118
$$  -286275
$$  -278431
$$  -270588
$$  -262745
$$  -254902
$$  -247059
$$  -239216
$$  -231373
$$  -223529
$$  -215686
$$  -207843
$$  -200000
$$  -192157
$$  -184314
$$  -176471
$$  -168627
$$  -160784
$$  -152941
$$  -145098
$$  -137255
$$  -129412
$$  -121569
$$  -113725
$$  -105882
$$   -98039
$$   -90196
$$   -82353
$$   -74510
$$   -66667
$$   -58824
$$   -50980
$$   -43137
$$   -35294
$$   -27451
$$   -19608
$$   -11765
$$    -3922
$$     3922
$$    11765
$$    19608
$$    27451
$$    35294
$$    43137
$$    50980
$$    58824
$$    66667
$$    74510
$$    82353
$$    90196
$$    98039
$$   105882
$$   113725
$$   121569
$$   129412
$$   137255
$$   145098
$$   152941
$$   160784
$$   168627
$$   176471
$$   184314
$$   192157
$$   200000
$$   207843
$$   215686
$$   223529
$$   231373
$$   239216
$$   247059
$$   254902
$$   262745
$$   270588
$$   278431
$$   286275
$$   294118
$$   301961
$$   309804
$$   317647
$$   325490
$$   333333
$$   341176
$$   349020
$$   356863
$$   364706
$$   372549
$$   380392
$$   388235
$$   396078
$$   403922
$$   411765
$$   419608
$$   427451
$$   435294
$$   443137
$$   450980
$$   458824
$$   466667
$$   474510
$$   482353
$$   490196
$$   498039
$$   505882
$$   513725
$$   521569
$$   529412
$$   537255
$$   545098
$$   552941
$$   560784
$$   568627
$$   576471
$$   584314
$$   592157
$$   600000
$$   607843
$$   615686
$$   623529
$$   631373
$$   639216
$$   647059
$$   654902
$$   662745
$$   670588
$$   678431
$$   686275
$$   694118
$$   701961
$$   709804
$$   717647
$$   725490
$$   733333
$$   741176
$$   749020
$$   756863
$$   764706
$$   772549
$$   780392
$$   788235
$$   796078
$$   803922
$$   811765
$$   819608
$$   827451
$$   835294
$$   843137
$$   850980
$$   858824
$$   866667
$$   874510
$$   882353
$$   890196
$$   898039
$$   905882
$$   913725
$$   921569
$$   929412
$$   937255
$$   945098
$$   952941
$$   960784
$$   968627
$$   976471
$$   984314
$$   992157
$$  1000000
$$  1019531
$$  1039062
$$  1058594
$$  1078125
$$  1097656
$$  1117187
$$  1136719
$$  1156250
$$  1175781
$$  1195312
$$  1214844
$$  1234375
$$  1253906
$$  1273437
$$  1292969
$$  1312500
$$  1332031
$$  1351562
$$  1371094
$$  1390625
$$  1410156
$$  1429687
$$  1449219
$$  1468750
$$  1488281
$$  1507812
$$  1527344
$$  1546875
$$  1566406
$$  1585937
$$  1605469
$$  1625000
$$  1644531
$$  1664062
$$  1683594
$$  1703125
$$  1722656
$$  1742187
$$  1761719
$$  1781250
$$  1800781
$$  1820312
$$  1839844
$$  1859375
$$  1878906
$$  1898437
$$  1917969
$$  1937500
$$  1957031
$$  1976562
$$  1996094
$$  2015625
$$  2035156
$$  2054687
$$  2074219
$$  2093750
$$  2113281
$$  2132812
$$  2152344
$$  2171875
$$  2191406
$$  2210937
$$  2230469
$$  2250000
$$  2269531
$$  2289062
$$  2308594
$$  2328125
$$  2347656
$$  2367187
$$  2386719
$$  2406250
$$  2425781
$$  2445312
$$  2464844
$$  2484375
$$  2503906
$$  2523437
$$  2542969
$$  2562500
$$  2582031
$$  2601562
$$  2621094
$$  2640625
$$  2660156
$$  2679687
$$  2699219
$$  2718750
$$  2738281
$$  2757812
$$  2777344
$$  2796875
$$  2816406
$$  2835937
$$  2855469
$$  2875000
$$  2894531
$$  2914062
$$  2933594
$$  2953125
$$  2972656
$$  2992187
$$  3011719
$$  3031250
$$  3050781
$$  3070312
$$  3089844
$$  3109375
$$  3128906
$$  3148437
$$  3167969
$$  3187500
$$  3207031
$$  3226562
$$  3246094
$$  3265625
$$  3285156
$$  3304687
$$  3324219
$$  3343750
$$  3363281
$$  3382812
$$  3402344
$$  3421875
$$  3441406
$$  3460937
$$  3480469
$$  3500000
##$RELAX= 
##$BRUKER FILE EXP=scon2
$$ ##TITLE= Parameter file, TOPSPIN		Version 3.1
$$ ##JCAMPDX= 5.0
$$ ##DATATYPE= Parameter Values
$$ ##NPOINTS= 1	$$ modification sequence number
$$ ##ORIGIN= Bruker BioSpin GmbH
$$ ##OWNER= automation
$$ $$ 2013-05-28 20:20:14.125 +0200  automation@nmrf492l
$$ $$ /opt/data/daeby/nmr/84-74-2/13/scon2
$$ $$ process /opt/topspin/prog/mod/go
$$ ##$BLKTR= (0..19)
3 3 3 3 3 3 3 3 3 3 3 3 3 3 3 3 3 3 3 3
$$ ##$DE1= 4.5
$$ ##$DEADC= 0.5
$$ ##$DEPA= 4.5
$$ ##$DERX= 1.5
$$ ##$FILCOR= 0
$$ ##$GRADCHAN= 0
$$ ##$GRADPRE= (0..1)
10 10
$$ ##$HD_BLKTR= (0..19)
1 1 1 1 1 1 1 1 1 1 1 1 1 1 1 1 1 1 1 1
$$ ##$HD_DE1= 5
$$ ##$HD_DEADC= 0
$$ ##$HD_DEPA= 2.5
$$ ##$HD_DERX= 0
$$ ##END=
##$RELAX= 
##$BRUKER FILE EXP=prosol_History
##$RELAX= 
##$BRUKER FILE EXP=pulseprogram
$$ # 1 "/opt/topspin/exp/stan/nmr/lists/pp/cosygpppqf"
$$ ;cosygpppqf
$$ ;avance-version (10/02/09)
$$ ;2D homonuclear shift correlation
$$ ;using gradient pulses for selection
$$ ;using purge pulses before d1
$$ ;
$$ ;$CLASS=HighRes
$$ ;$DIM=2D
$$ ;$TYPE=
$$ ;$SUBTYPE=
$$ ;$COMMENT=
$$ ;$RECOMMEND=y
$$ 
$$ 
$$ # 1 "/opt/topspin/exp/stan/nmr/lists/pp/Avance.incl" 1
$$ ;Avance3.incl
$$ ;   for AV III
$$ ;
$$ ;avance-version (07/12/14)
$$ ;
$$ ;$CLASS=HighRes Incl
$$ ;$COMMENT=
$$ # 165 "/opt/topspin/exp/stan/nmr/lists/pp/Avance.incl"
$$ ;$Id: Avance3.incl,v 1.9 2009/07/02 16:40:43 ber Exp $
$$ # 15 "/opt/topspin/exp/stan/nmr/lists/pp/cosygpppqf" 2
$$ 
$$ # 1 "/opt/topspin/exp/stan/nmr/lists/pp/Grad.incl" 1
$$ ;Grad2.incl  -  include file for Gradient Spectroscopy
$$ ;   for TCU3
$$ ;
$$ ;avance-version (07/01/17)
$$ ;
$$ ;$CLASS=HighRes Incl
$$ ;$COMMENT=
$$ 
$$ # 27 "/opt/topspin/exp/stan/nmr/lists/pp/Grad.incl"
$$ define list<gradient> EA=<EA>
$$ 
$$ 
$$ # 31 "/opt/topspin/exp/stan/nmr/lists/pp/Grad.incl"
$$ ;$Id: Grad2.incl,v 1.13 2009/07/02 16:40:43 ber Exp $
$$ # 16 "/opt/topspin/exp/stan/nmr/lists/pp/cosygpppqf" 2
$$ 
$$ 
$$ # 19 "/opt/topspin/exp/stan/nmr/lists/pp/cosygpppqf"
$$ "d11=30m"
$$ "d12=20u"
$$ "d13=4u"
$$ 
$$ 
$$ "in0=inf1"
$$ # 26 "/opt/topspin/exp/stan/nmr/lists/pp/cosygpppqf"
$$ "d0=3u"
$$ 
$$ 
$$ # 1 "mc_line 29 file /opt/topspin/exp/stan/nmr/lists/pp/cosygpppqf exp. def. part of mc cmd. before ze"
$$ define delay MCWRK
$$ define delay MCREST
$$ define delay d0orig
$$ "d0orig=d0"
$$ define loopcounter t1loop
$$ "t1loop=0"
$$ define loopcounter ph1loop
$$ "ph1loop=0"
$$ define loopcounter ST1CNT
$$ "ST1CNT = td1/(1)"
$$ "MCWRK = 0.500000*d11"
$$ "MCREST = d11 - d11"
$$ 
$$     dccorr
$$ # 29 "/opt/topspin/exp/stan/nmr/lists/pp/cosygpppqf"
$$ 1 ze
$$ # 1 "mc_line 29 file /opt/topspin/exp/stan/nmr/lists/pp/cosygpppqf exp. def. of mc cmd. after ze"
$$ # 30 "/opt/topspin/exp/stan/nmr/lists/pp/cosygpppqf"
$$ # 1 "mc_line 30 file /opt/topspin/exp/stan/nmr/lists/pp/cosygpppqf exp. start label for mc cmd."
$$ 2 MCWRK 
$$ LBLST1, MCWRK
$$   MCREST
$$ # 31 "/opt/topspin/exp/stan/nmr/lists/pp/cosygpppqf"
$$ # 32 "/opt/topspin/exp/stan/nmr/lists/pp/cosygpppqf"
$$ 3 d12 pl10:f1
$$   p17 ph3
$$   p17*2 ph4
$$   d1 pl1:f1
$$ 
$$   p1 ph1
$$   d0
$$   50u setnmr3|0 setnmr0|34|32|33 ctrlgrad 0
$$   p16:gp1
$$   d16
$$   p0 ph2
$$   d13
$$   p16:gp1
$$   d16
$$   4u setnmr3^0 setnmr0^34^32^33 ctrlgrad 7
$$   go=2 ph31
$$ # 1 "mc_line 48 file /opt/topspin/exp/stan/nmr/lists/pp/cosygpppqf exp. mc cmd. in line"
$$   MCWRK  wr #0 if #0 zd 
$$ 
$$   "t1loop+=1"
$$       "d0=d0orig + t1loop * in0 "
$$   lo to LBLST1 times ST1CNT
$$   MCWRK 
$$   "t1loop=0"
$$   MCWRK
$$ # 49 "/opt/topspin/exp/stan/nmr/lists/pp/cosygpppqf"
$$ exit
$$ 
$$ # 52 "/opt/topspin/exp/stan/nmr/lists/pp/cosygpppqf"
$$ ph1=0 2
$$ ph2=0 0 2 2
$$ ph3=0
$$ ph4=1
$$ ph31=0 2
$$ 
$$ 
$$ ;pl1 : f1 channel - power level for pulse (default)
$$ ;pl10: f1 channel - power level for TOCSY-spinlock
$$ ;p0 : f1 channel -  20 to 90 degree high power pulse
$$ ;p1 : f1 channel -  90 degree high power pulse
$$ ;p16: homospoil/gradient pulse
$$ ;p17: f1 channel - trim pulse                             [2.5 msec]
$$ ;d0 : incremented delay (2D)                              [3 usec]
$$ ;d1 : relaxation delay; 1-5 * T1
$$ ;d11: delay for disk I/O                                  [30 msec]
$$ ;d12: delay for power switching                           [20 usec]
$$ ;d13: short delay                                         [4 usec]
$$ ;d16: delay for homospoil/gradient recovery
$$ ;inf1: 1/SW = 2 * DW
$$ ;in0: 1/(1 * SW) = 2 * DW
$$ ;nd0: 1
$$ ;NS: 1 * n
$$ ;DS: 16
$$ ;td1: number of experiments
$$ ;FnMODE: QF
$$ # 79 "/opt/topspin/exp/stan/nmr/lists/pp/cosygpppqf"
$$ ;use gradient ratio:	gp 1
$$ ;			  10
$$ 
$$ ;for z-only gradients:
$$ ;gpz1: 10%
$$ 
$$ ;use gradient files:   
$$ ;gpnam1: SMSQ10.100
$$ # 90 "/opt/topspin/exp/stan/nmr/lists/pp/cosygpppqf"
$$ ;$Id: cosygpppqf,v 1.7 2010/02/10 16:23:03 ber Exp $
##$RELAX= 
##$BRUKER FILE EXP=shimvalues
$$ # Tue May 28 20:20:35 2013
$$ #$$PROBEID=1
$$ #$$PROBEINFO=5 mm PABBO BB/19F-1H/D Z-GRD Z108618/0486
$$ #$$PICSINFO=Z108618_0486_01.par
$$ #
$$ # Active Shim Gradients
$$ #
$$ Z           		4375            
$$ Z2          		-423            
$$ Z3          		763             
$$ Z4          		-10290          
$$ Z5          		1063            
$$ Z6          		19291           
$$ X           		8415            
$$ XZ          		-12207          
$$ XZ2         		6922            
$$ XZ3         		4205            
$$ Y           		-3973           
$$ YZ          		3212            
$$ YZ2         		-4962           
$$ YZ3         		-468            
$$ XY          		-5130           
$$ XYZ         		-4150           
$$ (X2-Y2)     		-1930           
$$ (X2-Y2)Z    		-4518           
$$ X3          		2417            
$$ Y3          		-2284           
$$ #
$$ # Lock Parameter
$$ #
$$ FIELD		5880.304
$$ LOCKPHASE		324.400 
$$ LOCKPOWER		-30.000 
$$ LOCKGAIN		137.768 
$$ LOCKDC		-75.000 
$$ LOCKSHIFT		7.240   
$$ LOOPGAIN		-12.000 
$$ LOOPTIME		0.400   
$$ LOOPFILTER		100.000 
$$ #
$$ IEEE64_VERSION_CODE 1
$$ #
$$ # Shim currents 
$$ #
$$ SHIM_SETTING [1 ]  2121.73376399   
$$ SHIM_SETTING [2 ]  -209.25857792   
$$ SHIM_SETTING [3 ]  401.14424235    
$$ SHIM_SETTING [4 ]  -5412.50051578  
$$ SHIM_SETTING [5 ]  559.25209068    
$$ SHIM_SETTING [6 ]  4426.17800000   
$$ SHIM_SETTING [7 ]  -6421.07800000  
$$ SHIM_SETTING [8 ]  3640.72400000   
$$ SHIM_SETTING [9 ]  -1015.29200000  
$$ SHIM_SETTING [10]  -2698.41800000  
$$ SHIM_SETTING [11]  -2089.78400000  
$$ SHIM_SETTING [12]  1689.48900000   
$$ SHIM_SETTING [13]  -2610.27300000  
$$ SHIM_SETTING [14]  -246.26600000   
$$ SHIM_SETTING [15]  10147.25000000  
$$ SHIM_SETTING [16]  -2376.30000000  
$$ SHIM_SETTING [17]  2211.60200000   
$$ SHIM_SETTING [18]  -2182.97900000  
$$ SHIM_SETTING [19]  1271.29500000   
$$ SHIM_SETTING [20]  -1201.29600000  
##$RELAX= 
##$BRUKER FILE EXP=uxnmr.par
$$ ##TITLE= Parameter file, TOPSPIN		Version 3.1
$$ ##JCAMPDX= 5.0
$$ ##DATATYPE= Parameter Values
$$ ##NPOINTS= 50	$$ modification sequence number
$$ ##ORIGIN= Bruker BioSpin GmbH
$$ ##OWNER= nmrsu
$$ $$ 2013-02-07 09:11:50.018 +0100  nmr@nmrf492l
$$ $$ /opt/topspin/conf/instr/spect/uxnmr.par
$$ $$ process /opt/topspin/prog/mod/confwiring
$$ ##$ACB= 0
$$ ##$ACBTAT= (0..23)
0 66 66 50 0 0 0 0 0 0 0 0 0 0 0 0 0 0 0 0 0 0 0 0
$$ ##$ACBTBA= (0..23)
0 2 2 0 0 0 0 0 0 0 0 0 0 0 0 0 0 0 0 0 0 0 0 0
$$ ##$ACBTBLK= (0..23)
0 1 1 35 0 0 0 0 0 0 0 0 0 0 0 0 0 0 0 0 0 0 0 0
$$ ##$ACBTCTL= (0..23)
0 0 0 6 0 0 0 0 0 0 0 0 0 0 0 0 0 0 0 0 0 0 0 0
$$ ##$ACBTDI= (0..23)
0 102 102 -1779670252 0 0 0 0 0 0 0 0 0 0 0 0 0 0 0 0 0 0 0 0
$$ ##$ACBTDM= (0..23)
0 10 10 10 0 0 0 0 0 0 0 0 0 0 0 0 0 0 0 0 0 0 0 0
$$ ##$ACBTFHI= (0..23)
0 400 400 62 0 0 0 0 0 0 0 0 0 0 0 0 0 0 0 0 0 0 0 0
$$ ##$ACBTFL= (0..23)
0 73 74 8 0 0 0 0 0 0 0 0 0 0 0 0 0 0 0 0 0 0 0 0
$$ ##$ACBTFLO= (0..23)
0 9 9 60 0 0 0 0 0 0 0 0 0 0 0 0 0 0 0 0 0 0 0 0
$$ ##$ACBTINP= (0..23)
0 1 2 3 0 0 0 0 0 0 0 0 0 0 0 0 0 0 0 0 0 0 0 0
$$ ##$ACBTOUT= (0..23)
0 1 2 1 0 0 0 0 0 0 0 0 0 0 0 0 0 0 0 0 0 0 0 0
$$ ##$ACBTPO= (0..23)
0 150000 60000 5000 0 0 0 0 0 0 0 0 0 0 0 0 0 0 0 0 0 0 0 0
$$ ##$ACBTPW= (0..23)
0 10 10 1000 0 0 0 0 0 0 0 0 0 0 0 0 0 0 0 0 0 0 0 0
$$ ##$ACBTSB= (0..23)
0 0 0 0 0 0 0 0 0 0 0 0 0 0 0 0 0 0 0 0 0 0 0 0
$$ ##$ACBTSDT= (0..23)
0 -1 -1 2 0 0 0 0 0 0 0 0 0 0 0 0 0 0 0 0 0 0 0 0
$$ ##$ACBTY= <no>
$$ ##$AMPDFLT= no
$$ ##$AQSBDCH= (0..95)
0 0 0 0 0 0 0 0 255 255 255 255 255 255 255 255 255 255 255 255 255 255
255 255 255 255 255 255 255 255 255 255 255 255 255 255 255 255 255 255
255 255 255 255 255 255 255 255 255 255 255 255 255 255 255 255 255 255
255 255 255 255 255 255 255 255 255 255 255 255 255 255 255 255 255 255
255 255 255 255 255 255 255 255 255 255 255 255 255 255 255 255 255 255
255 255
$$ ##$AQSBDHW= (0..95)
4 1 8 8 0 0 0 0 255 255 255 255 255 255 255 255 255 255 255 255 255 255
255 255 255 255 255 255 255 255 255 255 255 255 255 255 255 255 255 255
255 255 255 255 255 255 255 255 255 255 255 255 255 255 255 255 255 255
255 255 255 255 255 255 255 255 255 255 255 255 255 255 255 255 255 255
255 255 255 255 255 255 255 255 255 255 255 255 255 255 255 255 255 255
255 255
$$ ##$AQSBDID= (0..95)
82 88 83 83 65 80 66 66 255 255 255 255 255 255 255 255 255 255 255 255
255 255 255 255 255 255 255 255 255 255 255 255 255 255 255 255 255 255
255 255 255 255 255 255 255 255 255 255 255 255 255 255 255 255 255 255
255 255 255 255 255 255 255 255 255 255 255 255 255 255 255 255 255 255
255 255 255 255 255 255 255 255 255 255 255 255 255 255 255 255 255 255
255 255 255 255
$$ ##$AQSBDNO= (0..95)
1 1 1 2 1 1 1 1 255 255 255 255 255 255 255 255 255 255 255 255 255 255
255 255 255 255 255 255 255 255 255 255 255 255 255 255 255 255 255 255
255 255 255 255 255 255 255 255 255 255 255 255 255 255 255 255 255 255
255 255 255 255 255 255 255 255 255 255 255 255 255 255 255 255 255 255
255 255 255 255 255 255 255 255 255 255 255 255 255 255 255 255 255 255
255 255
$$ ##$AQSBDSL= (0..95)
2 3 4 5 9 21 255 1 255 255 255 255 255 255 255 255 255 255 255 255 255
255 255 255 255 255 255 255 255 255 255 255 255 255 255 255 255 255 255
255 255 255 255 255 255 255 255 255 255 255 255 255 255 255 255 255 255
255 255 255 255 255 255 255 255 255 255 255 255 255 255 255 255 255 255
255 255 255 255 255 255 255 255 255 255 255 255 255 255 255 255 255 255
255 255 255
$$ ##$AQSBDTY= (0..95)
114 2 17 17 5 207 209 7 255 255 255 255 255 255 255 255 255 255 255 255
255 255 255 255 255 255 255 255 255 255 255 255 255 255 255 255 255 255
255 255 255 255 255 255 255 255 255 255 255 255 255 255 255 255 255 255
255 255 255 255 255 255 255 255 255 255 255 255 255 255 255 255 255 255
255 255 255 255 255 255 255 255 255 255 255 255 255 255 255 255 255 255
255 255 255 255
$$ ##$AQSBUAD= (0..95)
16 52 36 37 54 33 32 32 255 255 255 255 255 255 255 255 255 255 255 255
255 255 255 255 255 255 255 255 255 255 255 255 255 255 255 255 255 255
255 255 255 255 255 255 255 255 255 255 255 255 255 255 255 255 255 255
255 255 255 255 255 255 255 255 255 255 255 255 255 255 255 255 255 255
255 255 255 255 255 255 255 255 255 255 255 255 255 255 255 255 255 255
255 255 255 255
$$ ##$AQSECL= (0..95)
5 5 2 2 9 1 3 255 255 255 255 255 255 255 255 255 255 255 255 255 255 255
255 255 255 255 255 255 255 255 255 255 255 255 255 255 255 255 255 255
255 255 255 255 255 255 255 255 255 255 255 255 255 255 255 255 255 255
255 255 255 255 255 255 255 255 255 255 255 255 255 255 255 255 255 255
255 255 255 255 255 255 255 255 255 255 255 255 255 255 255 255 255 255
255 255
$$ ##$AQSECLS= (0..95)
1 3 7 7 0 0 2 255 255 255 255 255 255 255 255 255 255 255 255 255 255 255
255 255 255 255 255 255 255 255 255 255 255 255 255 255 255 255 255 255
255 255 255 255 255 255 255 255 255 255 255 255 255 255 255 255 255 255
255 255 255 255 255 255 255 255 255 255 255 255 255 255 255 255 255 255
255 255 255 255 255 255 255 255 255 255 255 255 255 255 255 255 255 255
255 255
$$ ##$AQSETH1= <no>
$$ ##$AQSETH2= <no>
$$ ##$AQSSPLT= no
$$ ##$ATT19F= (0..1)
0 0
$$ ##$ATT1H= (0..1)
0 0
$$ ##$ATT3H= (0..1)
0 0
$$ ##$ATTX= (0..1)
0 0
$$ ##$ATTY= (0..1)
0 0
$$ ##$ATTZ= (0..1)
0 0
$$ ##$BACSAIR= yes
$$ ##$BACSCAP= 60
$$ ##$BACSDEL= 5
$$ ##$BACSFCM= no
$$ ##$BACSOPT= <>
$$ ##$BACSTY= <tty01>
$$ ##$BARPTY= <no>
$$ ##$BFREQ= 400.08
$$ ##$BGAETH1= <no>
$$ ##$BGAETH2= <no>
$$ ##$BGAETH3= <no>
$$ ##$BGAETH4= <no>
$$ ##$BGAETH5= <no>
$$ ##$BGAETH6= <no>
$$ ##$BGAETH7= <no>
$$ ##$BGAETH8= <no>
$$ ##$BIRDS= yes
$$ ##$BMPC= 0
$$ ##$BMPCTY= <no>
$$ ##$BPSUTY= <no>
$$ ##$BSMS= 2
$$ ##$BSMSETH= <149.236.99.20>
$$ ##$BSMSTY= <no>
$$ ##$BgaChMap= (0..7)
15 15 15 15 15 15 15 15
$$ ##$BgaChShimMap= (0..7)
0 0 0 0 0 0 0 0
$$ ##$Bla01Eth= <no>
$$ ##$Bla01Nam= <BLA2BB 150/60 20-400>
$$ ##$Bla01PN= <W1345049>
$$ ##$Bla01SN= <2860>
$$ ##$Bla02Eth= <149.236.99.20>
$$ ##$Bla02Nam= <BSMS/2 LOCK TRANSCEIVER 400>
$$ ##$Bla02PN= <Z109888>
$$ ##$Bla02SN= <00673>
$$ ##$Bla03Eth= <no>
$$ ##$Bla03Nam= <>
$$ ##$Bla03PN= <>
$$ ##$Bla03SN= <>
$$ ##$Bla04Eth= <no>
$$ ##$Bla04Nam= <>
$$ ##$Bla04PN= <>
$$ ##$Bla04SN= <>
$$ ##$Bla05Eth= <no>
$$ ##$Bla05Nam= <>
$$ ##$Bla05PN= <>
$$ ##$Bla05SN= <>
$$ ##$Bla06Eth= <no>
$$ ##$Bla06Nam= <>
$$ ##$Bla06PN= <>
$$ ##$Bla06SN= <>
$$ ##$Bla07Eth= <no>
$$ ##$Bla07Nam= <>
$$ ##$Bla07PN= <>
$$ ##$Bla07SN= <>
$$ ##$Bla08Eth= <no>
$$ ##$Bla08Nam= <>
$$ ##$Bla08PN= <>
$$ ##$Bla08SN= <>
$$ ##$CFASMOD= (0..7)
1 1 1 1 1 1 1 1
$$ ##$CFASMUL= (0..7)
1 1 1 1 1 1 1 1
$$ ##$CNFTXDR= (0..7)
6 6 0 0 0 0 0 0
$$ ##$COMDIG2= 0
$$ ##$CPDBTY= <no>
$$ ##$CRCOTY= <no>
$$ ##$CSW1= (0..31)
1 1 3 0 0 0 0 0 0 0 0 0 0 0 0 0 0 0 0 0 0 0 0 0 0 0 0 0 0 0 0 0
$$ ##$CSW2= (0..31)
2 2 0 0 0 0 0 0 0 0 0 0 0 0 0 0 0 0 0 0 0 0 0 0 0 0 0 0 0 0 0 0
$$ ##$CSWNUM= (0..7)
2 1 0 0 0 0 0 0
$$ ##$Ctb1Eth= <no>
$$ ##$DATSTAT= no
$$ ##$DIGI140= (0..7)
0 0 0 0 0 0 0 0
$$ ##$DIGIB12= (0..7)
0 0 0 0 0 0 0 0
$$ ##$DIGIB16= (0..7)
0 0 0 0 0 0 0 0
$$ ##$DIGIFA= (0..7)
0 0 0 0 0 0 0 0
$$ ##$DIGIHA= (0..7)
0 0 0 0 0 0 0 0
$$ ##$DIGIHAF= (0..7)
0 0 0 0 0 0 0 0
$$ ##$DIGIHRD= (0..7)
0 0 0 0 0 0 0 0
$$ ##$DIGIIA= (0..7)
0 0 0 0 0 0 0 0
$$ ##$DIGIO16= (0..7)
0 0 0 0 0 0 0 0
$$ ##$DIGISA= (0..7)
0 0 0 0 0 0 0 0
$$ ##$DIGISAF= (0..7)
0 0 0 0 0 0 0 0
$$ ##$DIGISL= (0..7)
0 0 0 0 0 0 0 0
$$ ##$DIGITYI= (0..7)
0 0 0 0 0 0 0 0
$$ ##$DIGITYP= (0..7)
0 0 0 0 0 0 0 0
$$ ##$DIGITZ= 0
$$ ##$DPPFAC= 1
$$ ##$DRMSETH= <no>
$$ ##$DRU= yes
$$ ##$DRUETH01= <149.236.99.89>
$$ ##$DRUETH02= <no>
$$ ##$DRUETH03= <no>
$$ ##$DRUETH04= <no>
$$ ##$DRUETH05= <no>
$$ ##$DRUETH06= <no>
$$ ##$DRUETH07= <no>
$$ ##$DRUETH08= <no>
$$ ##$DRUETH09= <no>
$$ ##$DRUETH10= <no>
$$ ##$DRUETH11= <no>
$$ ##$DRUETH12= <no>
$$ ##$DRUETH13= <no>
$$ ##$DRUETH14= <no>
$$ ##$DRUETH15= <no>
$$ ##$DRUETH16= <no>
$$ ##$DRUETH17= <no>
$$ ##$DRUETH18= <no>
$$ ##$DRUETH19= <no>
$$ ##$DRUETH20= <no>
$$ ##$DRUETH21= <no>
$$ ##$DRUETH22= <no>
$$ ##$DRUETH23= <no>
$$ ##$DRUETH24= <no>
$$ ##$DRUETH25= <no>
$$ ##$DRUETH26= <no>
$$ ##$DRUETH27= <no>
$$ ##$DRUETH28= <no>
$$ ##$DRUETH29= <no>
$$ ##$DRUETH30= <no>
$$ ##$DRUETH31= <no>
$$ ##$DRUETH32= <no>
$$ ##$Description= <Avance III 400>
$$ ##$DppType= 0
$$ ##$FCUMEM= (0..7)
16777208 16777208 0 0 0 0 0 0
$$ ##$FCUPAL= (0..7)
0 0 0 0 0 0 0 0
$$ ##$FGSVTY= <no>
$$ ##$FQMIX= 0
$$ ##$FUNCMOD= <>
$$ ##$GCUTYPE= 10
$$ ##$GCUTYPE2= 0
$$ ##$GPREDEL= 0
$$ ##$GPSCUTY= <no>
$$ ##$GRADRES= 1
$$ ##$GTUTY= <no>
$$ ##$GradAmpGain= (0..1)
0 0
$$ ##$GradAmpMaxCurX= (0..1)
0 0
$$ ##$GradAmpMaxCurY= (0..1)
0 0
$$ ##$GradAmpMaxCurZ= (0..1)
9.99999904632568 0
$$ ##$GradAmpType= (0..1)
2 0
$$ ##$HDIETH1= <no>
$$ ##$HDIETH2= <no>
$$ ##$HDIETH3= <no>
$$ ##$HDIETH4= <no>
$$ ##$HFAC= 3
$$ ##$HPCU= 0
$$ ##$HPCUTY= <no>
$$ ##$HPTXLP= (0..3)
-1 -1 -1 -1
$$ ##$HPTXPI= (0..3)
0 0 0 0
$$ ##$HPTXPO= (0..3)
0 0 0 0
$$ ##$HPTXTY= (0..3)
0 0 0 0
$$ ##$IF451= 0
$$ ##$IFREQ= 1
$$ ##$INTFPR= 0
$$ ##$IPSOETH= <149.236.99.254>
$$ ##$LOCKCONF= <DLM>
$$ ##$LOCKTY= <no>
$$ ##$LOCSWID= 0
$$ ##$LOCSWIF= 0
$$ ##$LVDSSPLITETH1= <no>
$$ ##$LVDSSPLITETH2= <no>
$$ ##$LVDSSPLITETH3= <no>
$$ ##$LVDSSPLITETH4= <no>
$$ ##$Location= <EPFL>
$$ ##$M2FAC= 0
$$ ##$MAS= 0
$$ ##$MASETIME= 10
$$ ##$MASITIME= 10
$$ ##$MASTY= <no>
$$ ##$MAS_CT= 5
$$ ##$MAS_SG= 0
$$ ##$MAS_TO= 0
$$ ##$MEMPRM= 0
$$ ##$MHFAC= 0
$$ ##$MXFAC= 0
$$ ##$NAMPD1= <1H/2H 1H>
$$ ##$NAMPD10= <>
$$ ##$NAMPD11= <>
$$ ##$NAMPD12= <>
$$ ##$NAMPD13= <>
$$ ##$NAMPD14= <>
$$ ##$NAMPD15= <>
$$ ##$NAMPD16= <>
$$ ##$NAMPD2= <1H/2H 2H>
$$ ##$NAMPD3= <XBB19F 2HS>
$$ ##$NAMPD4= <>
$$ ##$NAMPD5= <>
$$ ##$NAMPD6= <>
$$ ##$NAMPD7= <>
$$ ##$NAMPD8= <>
$$ ##$NAMPD9= <>
$$ ##$NFCU= 2
$$ ##$NFRED= 0
$$ ##$NMRCH= 2
$$ ##$NMRMEM= 16384
$$ ##$NPSGU= 0
$$ ##$NRCU= 1
$$ ##$NROUT= 1
$$ ##$NSGU= 2
$$ ##$OrderNo= <10054375>
$$ ##$PAMPF1= (0..15)
75 24 96 64 0 0 0 0 0 0 0 0 0 0 0 0
$$ ##$PAMPF2= (0..15)
0 0 0 0 0 0 0 0 0 0 0 0 0 0 0 0
$$ ##$PAMPF3= (0..15)
0 0 0 0 0 0 0 0 0 0 0 0 0 0 0 0
$$ ##$PAMPF4= (0..15)
0 0 0 0 0 0 0 0 0 0 0 0 0 0 0 0
$$ ##$PAMPF5= (0..15)
0 0 0 0 0 0 0 0 0 0 0 0 0 0 0 0
$$ ##$PAMPF6= (0..15)
0 0 0 0 0 0 0 0 0 0 0 0 0 0 0 0
$$ ##$PAMPF7= (0..15)
0 0 0 0 0 0 0 0 0 0 0 0 0 0 0 0
$$ ##$PAMPF8= (0..15)
0 0 0 0 0 0 0 0 0 0 0 0 0 0 0 0
$$ ##$PH4= 0
$$ ##$PHF4TY= <no>
$$ ##$POWCHK= yes
$$ ##$PRAMD1= (0..7)
2 0 0 536870912 0 0 0 0
$$ ##$PRAMD10= (0..7)
0 0 0 0 0 0 0 0
$$ ##$PRAMD11= (0..7)
0 0 0 0 0 0 0 0
$$ ##$PRAMD12= (0..7)
0 0 0 0 0 0 0 0
$$ ##$PRAMD13= (0..7)
0 0 0 0 0 0 0 0
$$ ##$PRAMD14= (0..7)
0 0 0 0 0 0 0 0
$$ ##$PRAMD15= (0..7)
0 0 0 0 0 0 0 0
$$ ##$PRAMD16= (0..7)
0 0 0 0 0 0 0 0
$$ ##$PRAMD17= (0..7)
0 0 0 0 0 0 0 0
$$ ##$PRAMD18= (0..7)
0 0 0 0 0 0 0 0
$$ ##$PRAMD19= (0..7)
0 0 0 0 0 0 0 0
$$ ##$PRAMD2= (0..7)
0 1048576 0 536870912 0 1048576 0 536870912
$$ ##$PRAMD20= (0..7)
0 0 0 0 0 0 0 0
$$ ##$PRAMD21= (0..7)
0 0 0 0 0 0 0 0
$$ ##$PRAMD3= (0..7)
2147483644 2131230719 2147483647 671088639 0 0 0 0
$$ ##$PRAMD4= (0..7)
0 0 0 0 0 0 0 0
$$ ##$PRAMD5= (0..7)
0 0 0 0 0 0 0 0
$$ ##$PRAMD6= (0..7)
0 0 0 0 0 0 0 0
$$ ##$PRAMD7= (0..7)
0 0 0 0 0 0 0 0
$$ ##$PRAMD8= (0..7)
0 0 0 0 0 0 0 0
$$ ##$PRAMD9= (0..7)
0 0 0 0 0 0 0 0
$$ ##$PRAMLED= (0..1)
15 15
$$ ##$PRAMP1= <tty10>
$$ ##$PRAMP2= <no>
$$ ##$PRAMP3= <no>
$$ ##$PRAMP4= <no>
$$ ##$PRAMP5= <no>
$$ ##$PRAMP6= <no>
$$ ##$PRAMP7= <no>
$$ ##$PRAMP8= <no>
$$ ##$PRAMPTP= 1
$$ ##$PREPTY= <no>
$$ ##$PREREC= (0..15)
0 0 0 0 0 0 0 0 0 0 0 0 0 0 0 0
$$ ##$PRESHLD= 0
$$ ##$PTS160= -1
$$ ##$PTSA2X= (0..7)
0 0 0 0 0 0 0 0
$$ ##$PTSF2X= (0..7)
0 0 0 0 0 0 0 0
$$ ##$PTSFMX= (0..7)
429.9 429.9 0 0 0 0 0 0
$$ ##$PULCHK= no
$$ ##$PramDutyCycPerc= (0..15)
2 2 2 0 0 0 0 0 0 0 0 0 0 0 0 0
$$ ##$PramPeakPowerW= (0..15)
150 300 500 0 0 0 0 0 0 0 0 0 0 0 0 0
$$ ##$PramPulWidthMs= (0..15)
0.02 0.1 0.1 0 0 0 0 0 0 0 0 0 0 0 0 0
$$ ##$PreampMod01PN= <Z003959>
$$ ##$PreampMod01SN= <00925>
$$ ##$PreampMod02PN= <Z003959>
$$ ##$PreampMod02SN= <00925>
$$ ##$PreampMod03PN= <Z003504>
$$ ##$PreampMod03SN= <00914>
$$ ##$PreampMod04PN= <>
$$ ##$PreampMod04SN= <>
$$ ##$PreampMod05PN= <>
$$ ##$PreampMod05SN= <>
$$ ##$PreampMod06PN= <>
$$ ##$PreampMod06SN= <>
$$ ##$PreampMod07PN= <>
$$ ##$PreampMod07SN= <>
$$ ##$PreampMod08PN= <>
$$ ##$PreampMod08SN= <>
$$ ##$PreampMod09PN= <>
$$ ##$PreampMod09SN= <>
$$ ##$PreampMod10PN= <>
$$ ##$PreampMod10SN= <>
$$ ##$PreampMod11PN= <>
$$ ##$PreampMod11SN= <>
$$ ##$PreampMod12PN= <>
$$ ##$PreampMod12SN= <>
$$ ##$PreampMod13PN= <>
$$ ##$PreampMod13SN= <>
$$ ##$PreampMod14PN= <>
$$ ##$PreampMod14SN= <>
$$ ##$PreampMod15PN= <>
$$ ##$PreampMod15SN= <>
$$ ##$PreampMod16PN= <>
$$ ##$PreampMod16SN= <>
$$ ##$PreampModBisDat= (0..15)
20111109 20111109 20111103 0 0 0 0 0 0 0 0 0 0 0 0 0
$$ ##$RCUCDS= (0..7)
0 0 0 0 0 0 0 0
$$ ##$RCUCFS= (0..7)
0 0 0 0 0 0 0 0
$$ ##$RCUCSS= (0..7)
0 0 0 0 0 0 0 0
$$ ##$RCUI2C1= (0..7)
0 0 0 0 0 0 0 0
$$ ##$RCUI2C2= (0..7)
0 0 0 0 0 0 0 0
$$ ##$RCUI2C3= (0..7)
0 0 0 0 0 0 0 0
$$ ##$RCUI2C4= (0..7)
0 0 0 0 0 0 0 0
$$ ##$RCUI2C5= (0..7)
0 0 0 0 0 0 0 0
$$ ##$RCUI2C6= (0..7)
0 0 0 0 0 0 0 0
$$ ##$RCUI2C7= (0..7)
0 0 0 0 0 0 0 0
$$ ##$RCUI2C8= (0..7)
0 0 0 0 0 0 0 0
$$ ##$RDCU= 0
$$ ##$RFSINPUT= (0..1)
0 0
$$ ##$RFSVTY= <no>
$$ ##$RGTYPE= (0..31)
9 0 0 0 0 0 0 0 0 0 0 0 0 0 0 0 0 0 0 0 0 0 0 0 0 0 0 0 0 0 0 0
$$ ##$RG_max= (0..31)
203 0 0 0 0 0 0 0 0 0 0 0 0 0 0 0 0 0 0 0 0 0 0 0 0 0 0 0 0 0 0 0
$$ ##$RG_min= (0..31)
0.25 0 0 0 0 0 0 0 0 0 0 0 0 0 0 0 0 0 0 0 0 0 0 0 0 0 0 0 0 0 0 0
$$ ##$RG_tab1= (0..255)
0.25 0.28 0.32 0.35 0.4 0.44 0.5 0.56 0.64 0.7 0.8 0.89 1 1.12 1.28 1.4
1.6 1.78 2 2.25 2.56 2.8 3.2 3.56 4 4.5 5 5.6 6.35 7.12 8 9 10 11.3 12.7
14.2 16 18 20.2 22.6 25.4 28.5 32 36 40.3 45.2 50.8 57 64 71.8 80.6 90.5
101 114 128 144 161 181 203 -1 -1 -1 -1 -1 -1 -1 -1 -1 -1 -1 -1 -1 -1 -1
-1 -1 -1 -1 -1 -1 -1 -1 -1 -1 -1 -1 -1 -1 -1 -1 -1 -1 -1 -1 -1 -1 -1 -1
-1 -1 -1 -1 -1 -1 -1 -1 -1 -1 -1 -1 -1 -1 -1 -1 -1 -1 -1 -1 -1 -1 -1 -1
-1 -1 -1 -1 -1 -1 -1 -1 -1 -1 -1 -1 -1 -1 -1 -1 -1 -1 -1 -1 -1 -1 -1 -1
-1 -1 -1 -1 -1 -1 -1 -1 -1 -1 -1 -1 -1 -1 -1 -1 -1 -1 -1 -1 -1 -1 -1 -1
-1 -1 -1 -1 -1 -1 -1 -1 -1 -1 -1 -1 -1 -1 -1 -1 -1 -1 -1 -1 -1 -1 -1 -1
-1 -1 -1 -1 -1 -1 -1 -1 -1 -1 -1 -1 -1 -1 -1 -1 -1 -1 -1 -1 -1 -1 -1 -1
-1 -1 -1 -1 -1 -1 -1 -1 -1 -1 -1 -1 -1 -1 -1 -1 -1 -1 -1 -1 -1 -1 -1 -1
-1 -1 -1 -1 -1 -1 -1 -1 -1 -1 -1 -1 -1 -1
$$ ##$RG_tab2= (0..255)
-1 -1 -1 -1 -1 -1 -1 -1 -1 -1 -1 -1 -1 -1 -1 -1 -1 -1 -1 -1 -1 -1 -1 -1
-1 -1 -1 -1 -1 -1 -1 -1 -1 -1 -1 -1 -1 -1 -1 -1 -1 -1 -1 -1 -1 -1 -1 -1
-1 -1 -1 -1 -1 -1 -1 -1 -1 -1 -1 -1 -1 -1 -1 -1 -1 -1 -1 -1 -1 -1 -1 -1
-1 -1 -1 -1 -1 -1 -1 -1 -1 -1 -1 -1 -1 -1 -1 -1 -1 -1 -1 -1 -1 -1 -1 -1
-1 -1 -1 -1 -1 -1 -1 -1 -1 -1 -1 -1 -1 -1 -1 -1 -1 -1 -1 -1 -1 -1 -1 -1
-1 -1 -1 -1 -1 -1 -1 -1 -1 -1 -1 -1 -1 -1 -1 -1 -1 -1 -1 -1 -1 -1 -1 -1
-1 -1 -1 -1 -1 -1 -1 -1 -1 -1 -1 -1 -1 -1 -1 -1 -1 -1 -1 -1 -1 -1 -1 -1
-1 -1 -1 -1 -1 -1 -1 -1 -1 -1 -1 -1 -1 -1 -1 -1 -1 -1 -1 -1 -1 -1 -1 -1
-1 -1 -1 -1 -1 -1 -1 -1 -1 -1 -1 -1 -1 -1 -1 -1 -1 -1 -1 -1 -1 -1 -1 -1
-1 -1 -1 -1 -1 -1 -1 -1 -1 -1 -1 -1 -1 -1 -1 -1 -1 -1 -1 -1 -1 -1 -1 -1
-1 -1 -1 -1 -1 -1 -1 -1 -1 -1 -1 -1 -1 -1 -1 -1
$$ ##$RG_tab3= (0..255)
-1 -1 -1 -1 -1 -1 -1 -1 -1 -1 -1 -1 -1 -1 -1 -1 -1 -1 -1 -1 -1 -1 -1 -1
-1 -1 -1 -1 -1 -1 -1 -1 -1 -1 -1 -1 -1 -1 -1 -1 -1 -1 -1 -1 -1 -1 -1 -1
-1 -1 -1 -1 -1 -1 -1 -1 -1 -1 -1 -1 -1 -1 -1 -1 -1 -1 -1 -1 -1 -1 -1 -1
-1 -1 -1 -1 -1 -1 -1 -1 -1 -1 -1 -1 -1 -1 -1 -1 -1 -1 -1 -1 -1 -1 -1 -1
-1 -1 -1 -1 -1 -1 -1 -1 -1 -1 -1 -1 -1 -1 -1 -1 -1 -1 -1 -1 -1 -1 -1 -1
-1 -1 -1 -1 -1 -1 -1 -1 -1 -1 -1 -1 -1 -1 -1 -1 -1 -1 -1 -1 -1 -1 -1 -1
-1 -1 -1 -1 -1 -1 -1 -1 -1 -1 -1 -1 -1 -1 -1 -1 -1 -1 -1 -1 -1 -1 -1 -1
-1 -1 -1 -1 -1 -1 -1 -1 -1 -1 -1 -1 -1 -1 -1 -1 -1 -1 -1 -1 -1 -1 -1 -1
-1 -1 -1 -1 -1 -1 -1 -1 -1 -1 -1 -1 -1 -1 -1 -1 -1 -1 -1 -1 -1 -1 -1 -1
-1 -1 -1 -1 -1 -1 -1 -1 -1 -1 -1 -1 -1 -1 -1 -1 -1 -1 -1 -1 -1 -1 -1 -1
-1 -1 -1 -1 -1 -1 -1 -1 -1 -1 -1 -1 -1 -1 -1 -1
$$ ##$RG_tab4= (0..255)
-1 -1 -1 -1 -1 -1 -1 -1 -1 -1 -1 -1 -1 -1 -1 -1 -1 -1 -1 -1 -1 -1 -1 -1
-1 -1 -1 -1 -1 -1 -1 -1 -1 -1 -1 -1 -1 -1 -1 -1 -1 -1 -1 -1 -1 -1 -1 -1
-1 -1 -1 -1 -1 -1 -1 -1 -1 -1 -1 -1 -1 -1 -1 -1 -1 -1 -1 -1 -1 -1 -1 -1
-1 -1 -1 -1 -1 -1 -1 -1 -1 -1 -1 -1 -1 -1 -1 -1 -1 -1 -1 -1 -1 -1 -1 -1
-1 -1 -1 -1 -1 -1 -1 -1 -1 -1 -1 -1 -1 -1 -1 -1 -1 -1 -1 -1 -1 -1 -1 -1
-1 -1 -1 -1 -1 -1 -1 -1 -1 -1 -1 -1 -1 -1 -1 -1 -1 -1 -1 -1 -1 -1 -1 -1
-1 -1 -1 -1 -1 -1 -1 -1 -1 -1 -1 -1 -1 -1 -1 -1 -1 -1 -1 -1 -1 -1 -1 -1
-1 -1 -1 -1 -1 -1 -1 -1 -1 -1 -1 -1 -1 -1 -1 -1 -1 -1 -1 -1 -1 -1 -1 -1
-1 -1 -1 -1 -1 -1 -1 -1 -1 -1 -1 -1 -1 -1 -1 -1 -1 -1 -1 -1 -1 -1 -1 -1
-1 -1 -1 -1 -1 -1 -1 -1 -1 -1 -1 -1 -1 -1 -1 -1 -1 -1 -1 -1 -1 -1 -1 -1
-1 -1 -1 -1 -1 -1 -1 -1 -1 -1 -1 -1 -1 -1 -1 -1
$$ ##$RG_tab5= (0..255)
-1 -1 -1 -1 -1 -1 -1 -1 -1 -1 -1 -1 -1 -1 -1 -1 -1 -1 -1 -1 -1 -1 -1 -1
-1 -1 -1 -1 -1 -1 -1 -1 -1 -1 -1 -1 -1 -1 -1 -1 -1 -1 -1 -1 -1 -1 -1 -1
-1 -1 -1 -1 -1 -1 -1 -1 -1 -1 -1 -1 -1 -1 -1 -1 -1 -1 -1 -1 -1 -1 -1 -1
-1 -1 -1 -1 -1 -1 -1 -1 -1 -1 -1 -1 -1 -1 -1 -1 -1 -1 -1 -1 -1 -1 -1 -1
-1 -1 -1 -1 -1 -1 -1 -1 -1 -1 -1 -1 -1 -1 -1 -1 -1 -1 -1 -1 -1 -1 -1 -1
-1 -1 -1 -1 -1 -1 -1 -1 -1 -1 -1 -1 -1 -1 -1 -1 -1 -1 -1 -1 -1 -1 -1 -1
-1 -1 -1 -1 -1 -1 -1 -1 -1 -1 -1 -1 -1 -1 -1 -1 -1 -1 -1 -1 -1 -1 -1 -1
-1 -1 -1 -1 -1 -1 -1 -1 -1 -1 -1 -1 -1 -1 -1 -1 -1 -1 -1 -1 -1 -1 -1 -1
-1 -1 -1 -1 -1 -1 -1 -1 -1 -1 -1 -1 -1 -1 -1 -1 -1 -1 -1 -1 -1 -1 -1 -1
-1 -1 -1 -1 -1 -1 -1 -1 -1 -1 -1 -1 -1 -1 -1 -1 -1 -1 -1 -1 -1 -1 -1 -1
-1 -1 -1 -1 -1 -1 -1 -1 -1 -1 -1 -1 -1 -1 -1 -1
$$ ##$RG_tab6= (0..255)
-1 -1 -1 -1 -1 -1 -1 -1 -1 -1 -1 -1 -1 -1 -1 -1 -1 -1 -1 -1 -1 -1 -1 -1
-1 -1 -1 -1 -1 -1 -1 -1 -1 -1 -1 -1 -1 -1 -1 -1 -1 -1 -1 -1 -1 -1 -1 -1
-1 -1 -1 -1 -1 -1 -1 -1 -1 -1 -1 -1 -1 -1 -1 -1 -1 -1 -1 -1 -1 -1 -1 -1
-1 -1 -1 -1 -1 -1 -1 -1 -1 -1 -1 -1 -1 -1 -1 -1 -1 -1 -1 -1 -1 -1 -1 -1
-1 -1 -1 -1 -1 -1 -1 -1 -1 -1 -1 -1 -1 -1 -1 -1 -1 -1 -1 -1 -1 -1 -1 -1
-1 -1 -1 -1 -1 -1 -1 -1 -1 -1 -1 -1 -1 -1 -1 -1 -1 -1 -1 -1 -1 -1 -1 -1
-1 -1 -1 -1 -1 -1 -1 -1 -1 -1 -1 -1 -1 -1 -1 -1 -1 -1 -1 -1 -1 -1 -1 -1
-1 -1 -1 -1 -1 -1 -1 -1 -1 -1 -1 -1 -1 -1 -1 -1 -1 -1 -1 -1 -1 -1 -1 -1
-1 -1 -1 -1 -1 -1 -1 -1 -1 -1 -1 -1 -1 -1 -1 -1 -1 -1 -1 -1 -1 -1 -1 -1
-1 -1 -1 -1 -1 -1 -1 -1 -1 -1 -1 -1 -1 -1 -1 -1 -1 -1 -1 -1 -1 -1 -1 -1
-1 -1 -1 -1 -1 -1 -1 -1 -1 -1 -1 -1 -1 -1 -1 -1
$$ ##$RG_tab7= (0..255)
-1 -1 -1 -1 -1 -1 -1 -1 -1 -1 -1 -1 -1 -1 -1 -1 -1 -1 -1 -1 -1 -1 -1 -1
-1 -1 -1 -1 -1 -1 -1 -1 -1 -1 -1 -1 -1 -1 -1 -1 -1 -1 -1 -1 -1 -1 -1 -1
-1 -1 -1 -1 -1 -1 -1 -1 -1 -1 -1 -1 -1 -1 -1 -1 -1 -1 -1 -1 -1 -1 -1 -1
-1 -1 -1 -1 -1 -1 -1 -1 -1 -1 -1 -1 -1 -1 -1 -1 -1 -1 -1 -1 -1 -1 -1 -1
-1 -1 -1 -1 -1 -1 -1 -1 -1 -1 -1 -1 -1 -1 -1 -1 -1 -1 -1 -1 -1 -1 -1 -1
-1 -1 -1 -1 -1 -1 -1 -1 -1 -1 -1 -1 -1 -1 -1 -1 -1 -1 -1 -1 -1 -1 -1 -1
-1 -1 -1 -1 -1 -1 -1 -1 -1 -1 -1 -1 -1 -1 -1 -1 -1 -1 -1 -1 -1 -1 -1 -1
-1 -1 -1 -1 -1 -1 -1 -1 -1 -1 -1 -1 -1 -1 -1 -1 -1 -1 -1 -1 -1 -1 -1 -1
-1 -1 -1 -1 -1 -1 -1 -1 -1 -1 -1 -1 -1 -1 -1 -1 -1 -1 -1 -1 -1 -1 -1 -1
-1 -1 -1 -1 -1 -1 -1 -1 -1 -1 -1 -1 -1 -1 -1 -1 -1 -1 -1 -1 -1 -1 -1 -1
-1 -1 -1 -1 -1 -1 -1 -1 -1 -1 -1 -1 -1 -1 -1 -1
$$ ##$RG_tab8= (0..255)
-1 -1 -1 -1 -1 -1 -1 -1 -1 -1 -1 -1 -1 -1 -1 -1 -1 -1 -1 -1 -1 -1 -1 -1
-1 -1 -1 -1 -1 -1 -1 -1 -1 -1 -1 -1 -1 -1 -1 -1 -1 -1 -1 -1 -1 -1 -1 -1
-1 -1 -1 -1 -1 -1 -1 -1 -1 -1 -1 -1 -1 -1 -1 -1 -1 -1 -1 -1 -1 -1 -1 -1
-1 -1 -1 -1 -1 -1 -1 -1 -1 -1 -1 -1 -1 -1 -1 -1 -1 -1 -1 -1 -1 -1 -1 -1
-1 -1 -1 -1 -1 -1 -1 -1 -1 -1 -1 -1 -1 -1 -1 -1 -1 -1 -1 -1 -1 -1 -1 -1
-1 -1 -1 -1 -1 -1 -1 -1 -1 -1 -1 -1 -1 -1 -1 -1 -1 -1 -1 -1 -1 -1 -1 -1
-1 -1 -1 -1 -1 -1 -1 -1 -1 -1 -1 -1 -1 -1 -1 -1 -1 -1 -1 -1 -1 -1 -1 -1
-1 -1 -1 -1 -1 -1 -1 -1 -1 -1 -1 -1 -1 -1 -1 -1 -1 -1 -1 -1 -1 -1 -1 -1
-1 -1 -1 -1 -1 -1 -1 -1 -1 -1 -1 -1 -1 -1 -1 -1 -1 -1 -1 -1 -1 -1 -1 -1
-1 -1 -1 -1 -1 -1 -1 -1 -1 -1 -1 -1 -1 -1 -1 -1 -1 -1 -1 -1 -1 -1 -1 -1
-1 -1 -1 -1 -1 -1 -1 -1 -1 -1 -1 -1 -1 -1 -1 -1
$$ ##$RG_tabA= (0..255)
0.25 0.28 0.32 0.35 0.4 0.44 0.5 0.56 0.64 0.7 0.8 0.89 1 1.12 1.28 1.4
1.6 1.78 2 2.25 2.56 2.8 3.2 3.56 4 4.5 5 5.6 6.35 7.12 8 9 10 11.3 12.7
14.2 16 18 20.2 22.6 25.4 28.5 32 36 40.3 45.2 50.8 57 64 71.8 80.6 90.5
101 114 128 144 161 181 203 -1 -1 -1 -1 -1 -1 -1 -1 -1 -1 -1 -1 -1 -1 -1
-1 -1 -1 -1 -1 -1 -1 -1 -1 -1 -1 -1 -1 -1 -1 -1 -1 -1 -1 -1 -1 -1 -1 -1
-1 -1 -1 -1 -1 -1 -1 -1 -1 -1 -1 -1 -1 -1 -1 -1 -1 -1 -1 -1 -1 -1 -1 -1
-1 -1 -1 -1 -1 -1 -1 -1 -1 -1 -1 -1 -1 -1 -1 -1 -1 -1 -1 -1 -1 -1 -1 -1
-1 -1 -1 -1 -1 -1 -1 -1 -1 -1 -1 -1 -1 -1 -1 -1 -1 -1 -1 -1 -1 -1 -1 -1
-1 -1 -1 -1 -1 -1 -1 -1 -1 -1 -1 -1 -1 -1 -1 -1 -1 -1 -1 -1 -1 -1 -1 -1
-1 -1 -1 -1 -1 -1 -1 -1 -1 -1 -1 -1 -1 -1 -1 -1 -1 -1 -1 -1 -1 -1 -1 -1
-1 -1 -1 -1 -1 -1 -1 -1 -1 -1 -1 -1 -1 -1 -1 -1 -1 -1 -1 -1 -1 -1 -1 -1
-1 -1 -1 -1 -1 -1 -1 -1 -1 -1 -1 -1 -1 -1
$$ ##$ROUT14= (0..7)
0 0 0 0 0 0 0 0
$$ ##$ROUTER= 3
$$ ##$RX22TY= <no>
$$ ##$RXFMAX= (0..7)
432.5 -1 -1 -1 -1 -1 -1 -1
$$ ##$RXFMIN= (0..7)
5 -1 -1 -1 -1 -1 -1 -1
$$ ##$RXINTLV= (0..7)
1 0 0 0 0 0 0 0
$$ ##$RXMSTY= <no>
$$ ##$SCMTY= <no>
$$ ##$SGUC1= (0..15)
17 18 0 0 0 0 0 0 0 0 0 0 0 0 0 0
$$ ##$SGUC2= (0..15)
33 256 0 0 0 0 0 0 0 0 0 0 0 0 0 0
$$ ##$SLCBCONF= <SHNV>
$$ ##$SPECTR= 10
$$ ##$SY2FLAG= 0
$$ ##$SYNCTRIG= 11
$$ ##$SamChgEth= (0..3)
<149.236.99.130> <no> <no> <no>
$$ ##$Sgu1PowerLevels= (0..7)
0 0 0 0 0 0 0 0
$$ ##$Sgu2PowerLevels= (0..7)
0 0 0 0 0 0 0 0
$$ ##$Sgu3PowerLevels= (0..7)
0 0 0 0 0 0 0 0
$$ ##$Sgu4PowerLevels= (0..7)
0 0 0 0 0 0 0 0
$$ ##$Sgu5PowerLevels= (0..7)
0 0 0 0 0 0 0 0
$$ ##$Sgu6PowerLevels= (0..7)
0 0 0 0 0 0 0 0
$$ ##$Sgu7PowerLevels= (0..7)
0 0 0 0 0 0 0 0
$$ ##$Sgu8PowerLevels= (0..7)
0 0 0 0 0 0 0 0
$$ ##$SguType= 2
$$ ##$ShimPowMaxUA= (0..63)
130000 130000 130000 130000 130000 130000 130000 130000 130000 130000 130000
130000 130000 130000 130000 130000 130000 130000 130000 130000 0 0 0 0
0 0 0 0 0 0 0 0 0 0 0 0 0 0 0 0 0 0 0 0 0 0 0 0 0 0 0 0 0 0 0 0 0 0 0 0
0 0 0 0
$$ ##$ShimPowMaxUC= (0..63)
130000 130000 130000 130000 130000 130000 130000 130000 130000 130000 130000
130000 130000 130000 130000 130000 130000 130000 130000 130000 0 0 0 0
0 0 0 0 0 0 0 0 0 0 0 0 0 0 0 0 0 0 0 0 0 0 0 0 0 0 0 0 0 0 0 0 0 0 0 0
0 0 0 0
$$ ##$ShimPowMaxUG= (0..63)
524287 524287 524287 524287 524287 524287 524287 524287 524287 524287 524287
524287 524287 524287 524287 524287 524287 524287 524287 524287 0 0 0 0
0 0 0 0 0 0 0 0 0 0 0 0 0 0 0 0 0 0 0 0 0 0 0 0 0 0 0 0 0 0 0 0 0 0 0 0
0 0 0 0
$$ ##$ShimPowRcbType= 3
$$ ##$ShimPowRes= (0..63)
1e-20 1e-20 1e-20 1e-20 1e-20 1e-20 1e-20 1e-20 1e-20 1e-20 1e-20 1e-20
1e-20 1e-20 1e-20 1e-20 1e-20 1e-20 1e-20 1e-20 0 0 0 0 0 0 0 0 0 0 0 0
0 0 0 0 0 0 0 0 0 0 0 0 0 0 0 0 0 0 0 0 0 0 0 0 0 0 0 0 0 0 0 0
$$ ##$ShimPowRng0= (0..63)
1 1 1 1 1 1 1 1 1 1 1 1 1 1 1 1 1 1 1 1 0 0 0 0 0 0 0 0 0 0 0 0 0 0 0 0
0 0 0 0 0 0 0 0 0 0 0 0 0 0 0 0 0 0 0 0 0 0 0 0 0 0 0 0
$$ ##$ShimPowRng1= (0..63)
1 1 1 1 1 1 1 1 1 1 1 1 1 1 1 1 1 1 1 1 0 0 0 0 0 0 0 0 0 0 0 0 0 0 0 0
0 0 0 0 0 0 0 0 0 0 0 0 0 0 0 0 0 0 0 0 0 0 0 0 0 0 0 0
$$ ##$ShimPowRng2= (0..63)
1 1 1 1 1 1 1 1 1 1 1 1 1 1 1 1 1 1 1 1 0 0 0 0 0 0 0 0 0 0 0 0 0 0 0 0
0 0 0 0 0 0 0 0 0 0 0 0 0 0 0 0 0 0 0 0 0 0 0 0 0 0 0 0
$$ ##$ShimPowRng3= (0..63)
1 1 1 1 1 1 1 1 1 1 1 1 1 1 1 1 1 1 1 1 0 0 0 0 0 0 0 0 0 0 0 0 0 0 0 0
0 0 0 0 0 0 0 0 0 0 0 0 0 0 0 0 0 0 0 0 0 0 0 0 0 0 0 0
$$ ##$ShimSysFunc= (0..63)
1 2 3 4 5 7 9 11 15 16 8 10 12 14 6 17 13 18 19 20 0 0 0 0 0 0 0 0 0 0
0 0 0 0 0 0 0 0 0 0 0 0 0 0 0 0 0 0 0 0 0 0 0 0 0 0 0 0 0 0 0 0 0 0
$$ ##$ShimSysMatrix= 0
$$ ##$ShimSysType= 1
$$ ##$TFXNUM= 0
$$ ##$TRIPLO2= 0
$$ ##$VTU= 2
$$ ##$VTUETH= <149.236.99.20>
$$ ##$VTUTY= <no>
$$ ##$WBREFAM= (0..15)
240.6 92.5 100 100 100 100 100 100 100 100 100 100 100 100 100 100
$$ ##$WBREFLM= (0..15)
0 0 0 0 0 0 0 0 0 0 0 0 0 0 0 0
$$ ##$WBREFPH= (0..15)
90.84 -70.32 0 0 0 0 0 0 0 0 0 0 0 0 0 0
$$ ##$WBSGU= (0..15)
0 0 0 0 0 0 0 0 0 0 0 0 0 0 0 0
$$ ##$XFAC= 2
$$ ##END=
##$RELAX= 
##$BRUKER FILE PROC=clevels
$$ ##TITLE= Parameter file, TOPSPIN		Version 3.1
$$ ##JCAMPDX= 5.0
$$ ##DATATYPE= Parameter Values
$$ ##NPOINTS= 2	$$ modification sequence number
$$ ##ORIGIN= Bruker BioSpin GmbH
$$ ##OWNER= automation
$$ $$ 2013-05-28 20:25:26.577 +0200  automation@nmrf492l
$$ $$ /opt/data/daeby/nmr/84-74-2/13/pdata/1/clevels
$$ $$ process /opt/topspin/prog/mod/proc2d
$$ ##$LEVELS= (0..255)
1744.53 8306.76 39553.54 188338.33 896792.69 4270172.21 0 0 0 0 0 0 0 0
0 0 0 0 0 0 0 0 0 0 0 0 0 0 0 0 0 0 0 0 0 0 0 0 0 0 0 0 0 0 0 0 0 0 0 0
0 0 0 0 0 0 0 0 0 0 0 0 0 0 0 0 0 0 0 0 0 0 0 0 0 0 0 0 0 0 0 0 0 0 0 0
0 0 0 0 0 0 0 0 0 0 0 0 0 0 0 0 0 0 0 0 0 0 0 0 0 0 0 0 0 0 0 0 0 0 0 0
0 0 0 0 0 0 0 0 0 0 0 0 0 0 0 0 0 0 0 0 0 0 0 0 0 0 0 0 0 0 0 0 0 0 0 0
0 0 0 0 0 0 0 0 0 0 0 0 0 0 0 0 0 0 0 0 0 0 0 0 0 0 0 0 0 0 0 0 0 0 0 0
0 0 0 0 0 0 0 0 0 0 0 0 0 0 0 0 0 0 0 0 0 0 0 0 0 0 0 0 0 0 0 0 0 0 0 0
0 0 0 0 0 0 0 0 0 0 0 0 0 0 0 0 0 0 0 0 0 0 0 0 0 0
$$ ##$LEVSIGN= 1
$$ ##$MAXLEV= 6
$$ ##$METHOD= 0
$$ ##$NEGBASE= -1744.53
$$ ##$NEGINCR= 1.8
$$ ##$POSBASE= 1744.53
$$ ##$POSINCR= 1.8
$$ ##END=
##$RELAX= 
##$BRUKER FILE PROC=parm.txt
$$ 
$$ Current Data Parameters
$$ NAME            84-74-2              
$$ EXPNO                13              
$$ PROCNO                1              
$$ 
$$ F2 - Acquisition Parameters
$$ Date_          20130528              
$$ Time              20.20              
$$ INSTRUM           spect              
$$ PROBHD   5 mm PABBO BB/              
$$ PULPROG      cosygpppqf              
$$ TD                 2048              
$$ SOLVENT           CDCl3              
$$ NS                    1              
$$ DS                    8              
$$ SWH            3448.276 Hz           
$$ FIDRES         1.683728 Hz           
$$ AQ            0.2969600 sec          
$$ RG                48.31              
$$ DW              145.000 usec         
$$ DE                 6.50 usec         
$$ TE                298.0 K            
$$ D0           0.00000300 sec          
$$ D1           1.89473200 sec          
$$ D11          0.03000000 sec          
$$ D12          0.00002000 sec          
$$ D13          0.00000400 sec          
$$ D16          0.00020000 sec          
$$ IN0          0.00029000 sec          
$$ 
$$ ======== CHANNEL f1 ========
$$ SFO1        400.0818430 MHz          
$$ NUC1                 1H              
$$ P0                15.00 usec         
$$ P1                15.00 usec         
$$ P17             2500.00 usec         
$$ PLW1        10.19999981 W            
$$ PLW10        3.39499998 W            
$$ 
$$ ====== GRADIENT CHANNEL =====
$$ GPNAM[1]     SMSQ10.100              
$$ GPZ1              10.00 %            
$$ P16             1000.00 usec         
$$ 
$$ F1 - Acquisition parameters
$$ TD                  128              
$$ SFO1           400.0818 MHz          
$$ FIDRES        26.939655 Hz           
$$ SW                8.619 ppm          
$$ FnMODE               QF              
$$ 
$$ F2 - Processing parameters
$$ SI                 1024              
$$ SF          400.0800000 MHz          
$$ WDW               QSINE              
$$ SSB      0              
$$ LB       0 Hz           
$$ GB       0              
$$ PC                 1.40              
$$ 
$$ F1 - Processing parameters
$$ SI                 1024              
$$ MC2                  QF              
$$ SF          400.0800000 MHz          
$$ WDW               QSINE              
$$ SSB      0              
$$ LB       0 Hz           
$$ GB       0              
##$RELAX= 
$$ Bruker specific parameters
$$ --------------------------
##$DATPATH= </opt/data/daeby/nmr>
##$EXPNO= 13
##$NAME= <84-74-2>
##$PROCNO= 1
##$ACQT0= 1000000
##$AMP= (0..31)
100 100 100 100 100 100 100 100 100 100 100 100 100 100 100 100 100 100
100 100 100 100 100 100 100 100 100 100 100 100 100 100
##$AMPCOIL= (0..19)
0 0 0 0 0 0 0 0 0 0 0 0 0 0 0 0 0 0 0 0
##$ANAVPT= -1
##$AQSEQ= 0
##$AQ_mod= 3
##$AUNM= <au_getlcosy>
##$AUTOPOS= <32 >
##$BF1= 400.08
##$BF2= 400.08
##$BF3= 400.08
##$BF4= 400.08
##$BF5= 400.08
##$BF6= 400.08
##$BF7= 400.08
##$BF8= 400.08
##$BYTORDA= 0
##$CAGPARS= (0..11)
0 0 0 0 0 0 0 0 0 0 0 0
##$CFDGTYP= 0
##$CFRGTYP= 9
##$CHEMSTR= <none>
##$CNST= (0..63)
1 1 145 1 1 1 1 1 1 1 1 1 1 1 1 1 1 1 1 1 1 1 1 1 1 1 1 1 1 1 1 1 1 1 1
1 1 1 1 1 1 1 1 1 1 1 1 1 1 1 1 1 1 1 1 1 1 1 1 1 1 1 1 1
##$CPDPRG= (0..8)
<> <> <> <> <> <> <> <> <>
##$D= (0..63)
3e-06 1.894732 0 0 0 0 0 0 0 0 0 0.03 2e-05 4e-06 0 0 0.0002 0 0 0 0 0
0 0 0 0 0 0 0 0 0 0 0 0 0 0 0 0 0 0 0 0 0 0 0 0 0 0 0 0 0 0 0 0 0 0 0 0
0 0 0 0 0 0
##$DATE= 1369765235
##$DE= 6.5
##$DECBNUC= <off>
##$DECIM= 5800
##$DECNUC= <off>
##$DECSTAT= 4
##$DIGMOD= 1
##$DIGTYP= 12
##$DQDMODE= 0
##$DR= 23
##$DS= 8
##$DSPFIRM= 0
##$DSPFVS= 20
##$DTYPA= 0
##$EXP= <ChemInfo_cosy>
##$F1LIST= <>
##$F2LIST= <>
##$F3LIST= <>
##$FCUCHAN= (0..9)
0 2 0 0 0 0 0 0 0 0
##$FL1= 90
##$FL2= 90
##$FL3= 90
##$FL4= 90
##$FOV= 20
##$FQ1LIST= <freqlist>
##$FQ2LIST= <freqlist>
##$FQ3LIST= <freqlist>
##$FQ4LIST= <freqlist>
##$FQ5LIST= <freqlist>
##$FQ6LIST= <freqlist>
##$FQ7LIST= <freqlist>
##$FQ8LIST= <freqlist>
##$FRQLO3= 1246282.03358998
##$FRQLO3N= 0
##$FS= (0..7)
83 83 83 83 83 83 83 83
##$FTLPGN= 0
##$FW= 125000
##$FnMODE= 0
##$FnTYPE= 0
##$GPNAM= (0..31)
<SMSQ10.100> <SMSQ10.100> <SMSQ10.100> <SMSQ10.100> <SMSQ10.100> <SMSQ10.100>
<SMSQ10.100> <SMSQ10.100> <SMSQ10.100> <SMSQ10.100> <SMSQ10.100> <SMSQ10.100>
<SMSQ10.100> <SMSQ10.100> <SMSQ10.100> <SMSQ10.100> <SMSQ10.100> <SMSQ10.100>
<SMSQ10.100> <SMSQ10.100> <SMSQ10.100> <SMSQ10.100> <SMSQ10.100> <SMSQ10.100>
<SMSQ10.100> <SMSQ10.100> <SMSQ10.100> <SMSQ10.100> <SMSQ10.100> <SMSQ10.100>
<SMSQ10.100> <SMSQ10.100>
##$GPX= (0..31)
0 0 0 0 0 0 0 0 0 0 0 0 0 0 0 0 0 0 0 0 0 0 0 0 0 0 0 0 0 0 0 0
##$GPY= (0..31)
0 0 0 0 0 0 0 0 0 0 0 0 0 0 0 0 0 0 0 0 0 0 0 0 0 0 0 0 0 0 0 0
##$GPZ= (0..31)
0 10 10 0 0 0 0 0 0 0 0 0 0 0 0 0 0 0 0 0 0 0 0 0 0 0 0 0 0 0 0 0
##$GRDPROG= <grad_out>
##$GRPDLY= 67.9850158691406
##$HDDUTY= 20
##$HDRATE= 1
##$HGAIN= (0..3)
0 0 0 0
##$HL1= 90
##$HL2= 90
##$HL3= 90
##$HL4= 90
##$HOLDER= 32
##$HPMOD= (0..7)
0 0 0 0 0 0 0 0
##$HPPRGN= 0
##$IN= (0..63)
0.00029 0 0 0 0 0 0 0 0 0 0 0 0 0 0 0 0 0 0 0 0 0 0 0 0 0 0 0 0 0 0 0 0
0 0 0 0 0 0 0 0 0 0 0 0 0 0 0 0 0 0 0 0 0 0 0 0 0 0 0 0 0 0 0
##$INF= (0..7)
0 290 0 0 0 0 0 0
##$INP= (0..63)
0 0 0 0 0 0 0 0 0 0 0 0 0 0 0 0 0 0 0 0 0 0 0 0 0 0 0 0 0 0 0 0 0 0 0 0
0 0 0 0 0 0 0 0 0 0 0 0 0 0 0 0 0 0 0 0 0 0 0 0 0 0 0 0
##$INSTRUM= <spect>
##$L= (0..31)
1 1 1 1 1 1 1 1 1 1 1 1 1 1 1 1 1 1 1 1 1 1 1 1 1 1 1 1 1 1 1 1
##$LFILTER= 100
##$LGAIN= -12
##$LINPSTP= 0
##$LOCKED= yes
##$LOCKFLD= 5880
##$LOCKGN= 137.767807006836
##$LOCKPOW= -30
##$LOCKPPM= 7.23999977111816
##$LOCNUC= <2H>
##$LOCPHAS= 324.4
##$LOCSHFT= yes
##$LOCSW= 0
##$LTIME= 0.400000005960464
##$MASR= 4200
##$MASRLST= <masrlst>
##$MULEXPNO= (0..15)
0 0 0 0 0 0 0 0 0 0 0 0 0 0 0 0
##$NBL= 1
##$NC= -7
##$NLOGCH= 1
##$NOVFLW= 0
##$NS= 1
##$NUC1= <1H>
##$NUC2= <off>
##$NUC3= <off>
##$NUC4= <off>
##$NUC5= <off>
##$NUC6= <off>
##$NUC7= <off>
##$NUC8= <off>
##$NUCLEUS= <off>
##$NUSLIST= <automatic>
##$NusAMOUNT= 25
##$NusFPNZ= no
##$NusJSP= 0
##$NusSEED= 54321
##$NusT2= 1
##$NusTD= 0
##$O1= 1842.96640995341
##$O2= 2405.35772837802
##$O3= 2405.35772837802
##$O4= 2405.35772837802
##$O5= 2405.35772837802
##$O6= 2405.35772837802
##$O7= 2405.35772837802
##$O8= 2405.35772837802
##$OVERFLW= 0
##$P= (0..63)
15 15 30 0 0 17.16 26 52 20000 0 0 80000 80000 1000 0 0 1000 2500 100000
600 0 0 0 0 0 126 100000 15 0.1 1000 0 0 20000 0 0 0 0 0 0 0 2000 0 0 0
300 0 0 0 0 0 0 0 0 0 0 0 0 0 0 0 0 0 0 0
##$PACOIL= (0..15)
2 3 1 0 0 0 0 0 0 0 0 0 0 0 0 0
##$PAPS= 2
##$PARMODE= 1
##$PCPD= (0..9)
100 90 100 100 100 100 100 100 100 100
##$PEXSEL= (0..9)
1 1 1 1 1 1 1 1 1 1
##$PHCOR= (0..31)
0 0 0 0 0 0 0 0 0 0 0 0 0 0 0 0 0 0 0 0 0 0 0 0 0 0 0 0 0 0 0 0
##$PHLIST= <>
##$PHP= 1
##$PH_ref= 0
##$PL= (0..63)
120 120 120 120 120 120 120 120 120 120 120 120 120 120 120 120 120 120
120 120 120 120 120 120 120 120 120 120 120 120 120 120 120 120 120 120
120 120 120 120 120 120 120 120 120 120 120 120 120 120 120 120 120 120
120 120 120 120 120 120 120 120 120 120
##$PLSTEP= 0.1
##$PLSTRT= -6
##$PLW= (0..63)
0 10.2 0 0 0 0 0 0 0 9.18e-05 3.395 0.18967 0 0 0 0 0 0 10.2 0.28333 0
0 0 0 0 0 0 0.57823 0 3.395 0 0 3.672e-06 0 0 0 0 0 0 0 0 0 0 0 0 0 0 0
0 0 0 0 0 0 0 0 0 0 0 0 0 0 0 0
##$PLWMAX= (0..7)
34.9878 0 0 0 0 0 0 0
##$POWMOD= 0
##$PQPHASE= 0
##$PQSCALE= 1
##$PR= 1
##$PRECHAN= (0..15)
-1 2 0 1 -1 -1 -1 -1 -1 -1 -1 -1 -1 -1 -1 -1
##$PRGAIN= 0
##$PROBHD= <5 mm PABBO BB/19F-1H/D Z-GRD Z108618/0486
>
##$PULPROG= <cosygpppqf>
##$PW= 0
##$PYNM= <acqu.py>
##$QNP= 1
##$RD= 0
##$RECCHAN= (0..15)
0 2 0 0 0 0 0 0 0 0 0 0 0 0 0 0
##$RECPH= 0
##$RECPRE= (0..15)
-1 0 -1 -1 -1 -1 -1 -1 -1 -1 -1 -1 -1 -1 -1 -1
##$RECPRFX= (0..15)
-1 -1 -1 -1 -1 -1 -1 -1 -1 -1 -1 -1 -1 -1 -1 -1
##$RECSEL= (0..15)
0 0 1 0 0 0 0 0 0 0 0 0 0 0 0 0
##$RG= 48.31
##$RO= 10
##$ROUTWD1= (0..23)
0 128 2 2 2 2 2 2 0 0 0 0 0 0 0 0 0 0 0 0 1 1 0 0
##$ROUTWD2= (0..23)
0 1 2 2 2 2 2 2 0 0 0 0 0 0 0 0 0 0 1 0 1 1 0 0
##$RSEL= (0..15)
0 0 2 0 0 0 0 0 0 0 0 0 0 0 0 0
##$S= (0..7)
83 83 83 83 83 83 83 83
##$SELREC= (0..9)
0 0 0 0 0 0 0 0 0 0
##$SFO1= 400.08184296641
##$SFO2= 400.082405357728
##$SFO3= 400.082405357728
##$SFO4= 400.082405357728
##$SFO5= 400.082405357728
##$SFO6= 400.082405357728
##$SFO7= 400.082405357728
##$SFO8= 400.082405357728
##$SOLVENT= <CDCl3>
##$SOLVOLD= <off>
##$SP= (0..63)
120 120 120 120 120 120 120 120 120 120 120 120 120 120 120 120 120 120
120 120 120 120 120 120 120 120 120 120 120 120 120 120 120 120 120 120
120 120 120 120 120 120 120 120 120 120 120 120 120 120 120 120 120 120
120 120 120 120 120 120 120 120 120 120
##$SPECTR= 0
##$SPINCNT= 0
##$SPNAM= (0..63)
<> <Gaus1_270.1000> <Gaus1_180r.1000> <> <> <Squa100.1000> <Squa100.1000>
<> <Squa100.1000> <> <Squa100.1000> <Squa100.1000> <> <> <> <> <> <> <>
<Sinc1.1000> <Sinc1.1000> <Sinc1.1000> <Sinc1.1000> <> <> <> <> <> <> <Crp60,20,20.10>
<Bip720,50,20.1> <> <> <> <> <> <> <> <> <> <> <> <> <> <> <> <> <> <>
<> <> <> <> <> <> <> <> <> <> <> <> <> <> <>
##$SPOAL= (0..63)
0.5 1 0.5 0.5 0.5 0.5 0.5 0.5 0.5 0.5 0.5 0.5 0.5 0.5 0.5 0.5 0.5 0.5 0.5
1 1 1 1 0.5 0.5 0.5 0.5 0.5 0.5 0.5 0.5 0.5 0.5 0.5 0.5 0.5 0.5 0.5 0.5
0.5 0.5 0.5 0.5 0.5 0.5 0.5 0.5 0.5 0.5 0.5 0.5 0.5 0.5 0.5 0.5 0.5 0.5
0.5 0.5 0.5 0.5 0.5 0.5 0.5
##$SPOFFS= (0..63)
0 0 0 0 0 0 0 0 0 0 0 0 0 0 0 0 0 0 0 0 0 0 0 0 0 0 0 0 0 0 0 0 0 0 0 0
0 0 0 0 0 0 0 0 0 0 0 0 0 0 0 0 0 0 0 0 0 0 0 0 0 0 0 0
##$SPPEX= (0..63)
0 0 0 0 0 0 0 0 0 0 0 0 0 0 0 0 0 0 0 0 0 0 0 0 0 0 0 0 0 0 0 0 0 0 0 0
0 0 0 0 0 0 0 0 0 0 0 0 0 0 0 0 0 0 0 0 0 0 0 0 0 0 0 0
##$SPW= (0..63)
0 1.9052e-05 8.4676e-06 0 0 0.002295 9.18e-05 0 2.295e-07 0 0.002295 0.002295
0 0 0 0 0 0 0 1.351645e-05 2.101088e-05 9.810592e-06 5.290771e-05 0 0 0
0 0 0 0.087662 1.632 0 0 0 0 0 0 0 0 0 0 0 0 0 0 0 0 0 0 0 0 0 0 0 0 0
0 0 0 0 0 0 0 0
##$SUBNAM= (0..9)
<> <> <> <> <> <> <> <> <> <>
##$SW= 8.61892615896212
##$SWIBOX= (0..19)
0 0 2 0 0 0 0 0 0 0 0 0 0 0 0 0 0 0 0 0
##$SW_h= 3448.27586206897
##$SWfinal= 0
##$TD= 2048
##$TD0= 1
##$TE= 298.0034
##$TE1= 298.0359
##$TE2= 0
##$TE3= 0
##$TE4= 0
##$TEG= 298
##$TE_PIDX= 1
##$TE_STAB= (0..9)
1 1 0 0 0 0 0 0 0 0
##$TL= (0..7)
120 120 120 120 120 120 120 120
##$TUNHIN= 0
##$TUNHOUT= 0
##$TUNXOUT= 0
##$USERA1= <>
##$USERA2= <>
##$USERA3= <>
##$USERA4= <>
##$USERA5= <>
##$V9= 5
##$VALIST= <>
##$VCLIST= <>
##$VD= 0
##$VDLIST= <>
##$VPLIST= <>
##$VTLIST= <>
##$WBST= 1024
##$WBSW= 4
##$XGAIN= (0..3)
0 0 0 0
##$XL= 0
##$YL= 0
##$YMAX_a= 191331
##$YMIN_a= -120417
##$ZGOPTNS= <>
##$ZL1= 120
##$ZL2= 120
##$ZL3= 120
##$ZL4= 120
##$ABSF1= 8.915977
##$ABSF2= 0.2970107
##$ABSG= 5
##$ABSL= 0
##$ALPHA= 0
##$AQORDER= 0
##$ASSFAC= 0
##$ASSFACI= 0
##$ASSFACX= 0
##$ASSWID= 0
##$AUNMP= <save_auto_LDAP.pm>
##$AXLEFT= 0
##$AXNAME= <F2>
##$AXNUC= <1H>
##$AXRIGHT= 0
##$AXTYPE= 0
##$AXUNIT= <>
##$AZFE= 0.1
##$AZFW= 0.5
##$BCFW= 0
##$BC_mod= 0
##$BYTORDP= 0
##$COROFFS= 0
##$CY= 15
##$DATMOD= 1
##$DC= 0
##$DFILT= <>
##$DTYPP= 0
##$ERETIC= no
##$F1P= 8.93254470825195
##$F2P= -0.680917214748072
##$FCOR= 0.5
##$FTSIZE= 1024
##$FT_mod= 6
##$GAMMA= 0
##$GB= 0
##$INTBC= 1
##$INTSCL= 1
##$ISEN= 128
##$LB= 0
##$LEV0= 35
##$LPBIN= 0
##$MAXI= 10000
##$MC2= 0
##$MEAN= 0
##$ME_mod= 0
##$MI= 0
##$MddCEXP= no
##$MddCT_SP= no
##$MddF180= no
##$MddLAMBDA= 0
##$MddMEMORY= 0
##$MddMERGE= 0
##$MddNCOMP= 0
##$MddNITER= 0
##$MddNOISE= 0
##$MddPHASE= 0
##$MddSEED= 0
##$MddSRSIZE= 0
##$Mdd_CsALG= 0
##$Mdd_CsLAMBDA= 0
##$Mdd_CsNITER= 0
##$Mdd_CsNORM= 0
##$Mdd_CsZF= 0
##$Mdd_mod= 0
##$NCOEF= 0
##$NC_proc= -6
##$NLEV= 6
##$NOISF1= 0
##$NOISF2= 0
##$NSP= 0
##$NTH_PI= 0
##$NZP= 0
##$OFFSET= 8.915977
##$PC= 1.4
##$PHC0= 0
##$PHC1= 0
##$PH_mod= 0
##$PKNL= yes
##$PPARMOD= 1
##$PPDIAG= 0
##$PPIPTYP= 0
##$PPMPNUM= 2147483647
##$PPRESOL= 1
##$PSCAL= 0
##$PSIGN= 0
##$PYNMP= <proc.py>
##$REVERSE= no
##$SF= 400.08
##$SI= 1024
##$SIGF1= 8.915977
##$SIGF2= 0.2970107
##$SINO= 0
##$SIOLD= 1024
##$SPECTYP= <>
##$SREGLST= <1H.C6D6>
##$SSB= 0
##$STSI= 1024
##$STSR= 0
##$SW_p= 3448.275862069
##$SYMM= 1
##$S_DEV= 3190
##$TDeff= 2048
##$TDoff= 0
##$TI= <Icon NMR 50mM Cyclosporine
COSYGPSW C6D6 /opt/topspin nmrsu 13

>
##$TILT= no
##$TM1= 0
##$TM2= 0
##$TOPLEV= 100
##$USERP1= <>
##$USERP2= <>
##$USERP3= <>
##$USERP4= <>
##$USERP5= <>
##$WDW= 4
##$XDIM= 1024
##$YMAX_p= 273291022
##$YMIN_p= 0
##$CURPLOT= <Cups-PDF>
##$CURPRIN= <$Cups-PDF>
##$DFORMAT= <normdp>
##$LAYOUT= <+/2D_hom.xwp>
##$LFORMAT= <normlp>
##$PFORMAT= <normpl>
$$ Bruker specific parameters for F1
$$ ---------------------------------
##$ACQT0= 0
##$BF1= 400.08
##$FnMODE= 1
##$NUC1= <1H>
##$NusJSP= 0
##$NusT2= 1
##$NusTD= 128
##$O1= 1842.96640995341
##$SFO1= 400.08184296641
##$SW= 8.61892615896212
##$SW_h= 3448.27586206897
##$TD= 128
##$ABSF1= 8.915977
##$ABSF2= 0.2970107
##$ABSG= 5
##$ABSL= 0
##$ALPHA= 0
##$AQORDER= 0
##$ASSFAC= 0
##$ASSFACI= 0
##$ASSFACX= 0
##$ASSWID= 0
##$AUNMP= <>
##$AXLEFT= 0
##$AXNAME= <F1>
##$AXNUC= <1H>
##$AXRIGHT= 0
##$AXTYPE= 0
##$AXUNIT= <>
##$AZFE= 0.1
##$AZFW= 0.5
##$BCFW= 0
##$BC_mod= 0
##$BYTORDP= 0
##$COROFFS= 0
##$CY= 15
##$DATMOD= 1
##$DC= 0
##$DFILT= <>
##$DTYPP= 0
##$ERETIC= no
##$F1P= 8.93254470825195
##$F2P= -0.680917214748072
##$FCOR= 0.5
##$FTSIZE= 1024
##$FT_mod= 6
##$GAMMA= 0
##$GB= 0
##$INTBC= 1
##$INTSCL= 1
##$ISEN= 128
##$LB= 0
##$LEV0= 0
##$LPBIN= 256
##$MAXI= 10000
##$MC2= 0
##$MEAN= 0
##$ME_mod= 2
##$MI= 0
##$MddCEXP= no
##$MddCT_SP= no
##$MddF180= no
##$MddLAMBDA= 0
##$MddMEMORY= 0
##$MddMERGE= 0
##$MddNCOMP= 0
##$MddNITER= 0
##$MddNOISE= 0
##$MddPHASE= 0
##$MddSEED= 0
##$MddSRSIZE= 0
##$Mdd_CsALG= 0
##$Mdd_CsLAMBDA= 0
##$Mdd_CsNITER= 0
##$Mdd_CsNORM= 0
##$Mdd_CsZF= 0
##$Mdd_mod= 0
##$NCOEF= 32
##$NC_proc= -6
##$NLEV= 6
##$NOISF1= 0
##$NOISF2= 0
##$NSP= 0
##$NTH_PI= 0
##$NZP= 0
##$OFFSET= 8.915977
##$PC= 4
##$PHC0= 0
##$PHC1= 0
##$PH_mod= 2
##$PKNL= no
##$PPARMOD= 1
##$PPDIAG= 0
##$PPIPTYP= 0
##$PPMPNUM= 2147483647
##$PPRESOL= 1
##$PSCAL= 1
##$PSIGN= 0
##$PYNMP= <proc.py>
##$REVERSE= no
##$SF= 400.08
##$SI= 1024
##$SIGF1= 8.915977
##$SIGF2= 0.2970107
##$SINO= 0
##$SIOLD= 1024
##$SPECTYP= <>
##$SREGLST= <>
##$SSB= 0
##$STSI= 1024
##$STSR= 0
##$SW_p= 3448.275862069
##$SYMM= 1
##$S_DEV= 3190
##$TDeff= 256
##$TDoff= 0
##$TI= <>
##$TILT= no
##$TM1= 0
##$TM2= 0
##$TOPLEV= 0
##$USERP1= <>
##$USERP2= <>
##$USERP3= <>
##$USERP4= <>
##$USERP5= <>
##$WDW= 4
##$XDIM= 128
##$YMAX_p= 273291022
##$YMIN_p= 0
$$ End of Bruker specific parameters
$$ ---------------------------------
##NTUPLES= nD NMR SPECTRUM
##VAR_NAME=  FREQUENCY1,    FREQUENCY2,      SPECTRUM
##SYMBOL=    F1,            F2,              Y
##.NUCLEUS=  1H,            1H
##VAR_TYPE=  INDEPENDENT,   INDEPENDENT,     DEPENDENT
##VAR_FORM=  AFFN,          AFFN,            ASDF
##VAR_DIM=   1024,          1024,            1024
##UNITS=     HZ,            HZ,              ARBITRARY UNITS
##FACTOR=    3.36745689655176, 3.36745689655176, 1
##FIRST=     3567.10388786316, 3444.90840517245, 3066
##LAST=      122.195482690711, 0,            8386
##MIN=       122.195482690711, 0,            0
##MAX=       3567.10388786316, 3444.90840517245, 273291022
##PAGE= F1=3567.103887863
##FIRST=     3567.10388786316, 3444.90840517245, 3066
##DATA TABLE= (F2++(Y..Y)), PROFILE
1023C066f98C84Q35B77K882k34k86j43A127B8a032F20i60J93j513r12J340k632
1005d484b019m14p1l324K345K15Kj05k86k64K30M03L05O08r52a114L60DK13N25
985G42e334a059F03f20j145q91q84M19j0139e741N36A145L65J28l97g00l72E43
966B12f0m91n8j85B8L91k2K90kM08K23N44p17a055n80m119K652Q04A199e032p94
945e826b455j501g89p703d14q5j239p52J033l92m05l56j97n54R72M08K51M82L80
926h68L77A17h87j599C32f71D49c264G17b273e37p04o70m42n2O63Q10l514J203
907c243A570J429g46n63N42l011B537a426n58P17j444a060A602G43b34A088A13
889b02q597H16l72b02q94q00q40l43j55j06k693K831j56j49k11K47Q80O00r35
870b926g72q03c69j42r2p7Q6K62B95O60b6069J0578d928l505b746j626A908c707
851b832A953b096B76b35q62L97b73l410N1A530L62l33J7c346K47J370N49r97k056
832d233l892j0084k569a349A853M168A63d743e02C699l83K366o87j237l76r33
816B449G91b407j210n778M395H53K97J28K00c23A115m49A68b648R84j220r02Q15
798b971P82R84K53l323F50K75N5a499M61l568e34r83o61q97N4k321K544P09L06
779a783J64n576K207b155h04L44n05C29N5L7L8j38a16n01o65m89p97o09l75l731
759g283c042J1L18N17j493O53P8N76A577N72a052r41f63C121h08q21A64i46d00
739D23b366p31a445m730b141pJ66K40K80j68j69l32l18m48m68k37p5l17L5L36
719c623P9q2j03p67J369K19L26J79K98J79k460a589j202J372J65j5l865f17g0
699b057r87B581O12p55b072k241A909f178p90R23A934P213a242A811c04r63A203
681E64A55F8c778D81a044n633J480a806q62p74o18k45j18j13M59Q75J066r4h71
661e29A1J28K83b356M68c0l89k02j5j21k54d61Kb01c1A08k3L7c0k617J002N64
639a081l399n24a725l313a877m4K6J00L40o65l926a491A13i141c202A313l08j21
621H84l83B44b944a66gD57L69L07N35M73M52i73d23I70R41o45E13d61j260j13
601a834j073J061n36q51a356j03K87M6j72N51D7J42a182C36h90k987G04N66j80
582A090k30a021k211C6b89k756CM46J50a198A094K47e31E70b149K02J44k400R90
563c213k60j400K246A324F30A68c107l146a870j255b62k717j937A263K674m83
547C454A013R13e495k05b3j531e84K80Nk418d32G8M03J85k08R13K12L68k62b495
526d062i4D07b878k309m04K547o50j091j57k13N03K93M82K24P05O25M44N80M51
507h48L32O8l254r02c99C98L49K59m94J460J78a982C082K27A209c377i89C919
488C559i48o93j871j354A945P1l12m50k97C53e8341b7567g58k43l54j38q7q7m396
469f063J45K732J122D41b980D42K08K61a249K78c33j927J055j511j953J312M21
452b936c94R0q70A096c307p65J114a056j554B841C76b212R55C281K84k43n72l27
434B423H29c730j950a494F98j69A3d99l547g26j45l440o85b093m54m74o19q43
416d483J07L60K19R9J11j6j5p5k177J665p3L33J62K29J15J30J28P7k2m28m05p29
394d688j48nj59j22O4n2J5J72M63P21k36J894M07M56K7M28K73m39C84M57l7b681
371c097a027G92d388a885A252l69m28a38l21L3D4Q60Q85e54m561I20K858b379
352a384b70j267O57r9A598p51b78r16r01j778M73l36j47k87jJ13J28K36L11j020
332d403Q24P40M28J13k0j139O83j94k31n074c679l6M80M31k211N99J498i59k799
313c758j204J879E1a47N0j288l100J540b55B77P23L83M30g121B570b622q4O71
295b035l281k21A577k57n27C28a56k611a171q9M06j508g32A138I0a276d01A043
276c375a084j430L39B33b65o65J26m3j87o10k6K18j25j370K21l03q37k37P9P08
256c316R25Q59e43E05a703B477b589p55A214J557r00g92c05I88L65m57D46b978
237d051a086n55n71k228J116j71k11j19N29P94a211k788f75j859J182A311b998
219h58m764b609k595O35a769A278E11a70q01r38n07l139a880k710a956h35m0o85
201a560q78j347j185J191J801N45K20c93k670Q63j745J904B695k15L75A045a904
183D911j2o93A546c645j1785f168D002b5777n7365j3662i745D16a56p31k53r5
167a235j35J84J37L11K44on9j70nk54j7j2K41q49J63b12m283n60l098Q81c631
145B581B78O83d4793l4922b7583A233k27c1446l1526l4238J5283c2022d556C341
130C380c970J565O74a11j91o68k028J46o84O1j399J12a758l072a059j022j545
113c626l88a892A77a252F11J96j35b30C96I4c858J752N40a17k627a73B97M18a510
93e11A269k30L00c497j0537O483H46j58B25G9c33n68l98m8543j1525a5294b343
75a3363n72M615a148r5j156j0126a337m871J255k064K344b170A35J10J46J82J94
58G67f098A024k28C56a440r30l204nK310K70O67O86j341b66B08d48l617a818A178
38e0A549g8A530E75a55A660H24j43e90k346j284o53a025OK88j162d32o9l25j367
18b193j59p01k418a304j77m2k43j437N44J270f65b82A99N63O94M53N13O12
0C034
##PAGE= F1=3563.736430967
##FIRST=     3567.10388786316, 3444.90840517245, -698
##DATA TABLE= (F2++(Y..Y)), PROFILE
1023f98k43l51m82m47n16l08j74J78L30K90K46J08L74K16k19j843a384k204a72
1003e97p69n229K810L93f37B348m13m10m66C16f71q70r48A8d21J49j11A48e250
983a090A434N4m30G8P93a128j1336e215Q7a126l32r1k72K71n44P23L0o1n33m27
963b362l12N19M65P1M13J63d49b2F99k65a584p64l121J918J590i16n604J352J922
944c246j147b051n892e60A70a341j066A203B35A01Q08b280k34E6c36p31o06n64
926b237J34R14N90k134B77d47A071c533A40c411G13c0o96l25K32e8k93l721P20
907c352A522J782g54j37B62a679C829g65j152M40j250a135l00N0J7j27q7J07n552
888g027h89K49N0j57q9k06J58K07J88n360J917J100D76a944r85I47b668n27A14
868b341E282j285i0D643j172j340I51b11k5087J2175f468o48b733j661c1n304
852e335b015b08j153M65o4r25R11K82l956J090A046M23l74D51c580J403Q03O36
834g38L10k572m654r219k332a55l29n43m65l199b116J52k08J63j26n7l9P5J67
815a989M18j321n846K836B50L32P8O6B38a34q09q81j053J36K54O39B167J279A704
795a386m205F294j96B767a488N26m097I76a720G62a48j726l994b429p06q94q96
778d925j741J285J400J067M07J68o5m82l44K06P38R02f04E67R69D39b448B285
759f491A797Q8n43K8d169J441Q74j426B531J93a482m10a15B006b269a042D3a257
740a626q25p09o09k20l493c119N07L73K81K79j32p8j80j20k16k37l2Q0k12P9L37
719b390O3l72o08j555K226k11r3j99j5p9r6J18j07j80o3j86j528J255L1L49K26
698c414J91mN46L06k371a783m145q00L95g13J4k103F16m9a702E04L6B24J68c584
677A76e46n633K083B262C0b898j331a891M44j305j008p32n38J022J129P38P68
660a373J81J56n52j836N94j075p49N69R23J074Q96b49m28A436O08H02J14ak204
641b205g60H95d948n12g78n031b123k70K42N46g91j064l127J574g4q683c346C528
622C292p7l91H14b442A420l97j89k92B56O6J48K63h54b98F52A28c08l02k6j494
602b130A029a932L60j61r24g32K97j16j450M55K7B117J020b328C026f00l961D1
583B706k91k69a394j939f26r38k647E78K379I95g88B022L059g94B82b272J63p
565b116j273P45K44k794a297B291D98a967j104k273d21n66M39k516r74A819O20
548B439p04p56B74f181J713h59j004L7g82K41k568h15J15j04l31j13J02J07c84
528f21j809k078H6a0k232k256k12a264j51j894J218j011P07j03l9m47j03k18k70
509c575J40L08L92K57o79j862a241L67L47J33j92a18q8j905i64n29l53j876J244
490b478k66l43l08l46l726m867d300N5l20m30k21m35j8j36L29M35L82N90N73M72
470c024l106J078b523O85D58c109G67L45k23b987R51c76j875g63j652k102J850
453b667m84d1a6j973F51b703j378P59J602q74B848F24b075O55B436J63M65j88
435B876j36A010c614k412b102E148O67j942G5c779a472a67l969k95F38O00j99
418A039b646d31j61A43a210F53l00a45j537K94l345J491p90l84n02l18k26M5K17
399e200K50K04j51j01m34Q8J43j02j37j5j93k09j73l6P8n6O67K23L70M38j16L56
377d106O61O21P39K65j859J222d48G9d870a783F10J34J52C54a2A057k5j1q9j33
357G99c265b85A403c402d53C46a515e09pA267J27E71a48q04l998b310m50k85m04
338c449p1J16J97L36M07j094O18J074k19O31o9j507J170K6Q5n201a814k00J39
319a875k389l74Q38J791P84k357j176K226A74J182K29a873j957Q85b74k62b68
301F9O48e937B165b403K44Q49l382j083A518K01n36m16d66j812b60F15J31b261
282a069A292f9j531N07A232b338N24j701K75E66J485m58K98l90lm58a232H94k54
263F40b986d97j81o97k46l67k99l95n20j91K87M91J131q53o05e77K23J48k25j36
243e67m33j99l88k97o39j131R92j07l9k276K421N31M73L75k096b81j85k866c77
223b339i58A225b964g43n621K915l321K860a599C55C5d1m0r2B9c487H57c922a790
203e64a1G16B81c39n40o16j15k20K44b50j432k9k879J691A579k40j20k09a228
183E48B03D7e32l707q820d548b213o161m6378j0795c251j37j12m64j84J17M12
166c619P65P11Q62L90f0B46O7P3C8b46m30k82m86k37P1k467j274k698K16L556
146d277B413N15M84c9943l9689b8055C956L51b0121l3695l6557J1855c1347b422
131F351n78b804J181o6E91f05m13j584i18o93k719K61R2J609k844D47a030j957
113b987L9J088a54p07B488k69o83E89b4r82k620P35m92M33Q56O43P07B9b060E10
92A144j42L51c891j2174e840A122kk49J09j15k64j31c6808j8602a8521d785n583
75a0368q25K555a886l85n22r703b981k795Q06j738K637L96J98OJ37K83M17l884
57f518a544L66K52J55j074l917L98i67q5p0J1j268f55J88j16m129b157F8K95L30
37F93i04A328o37B31K775H93D03a458j001j542m23A784m57n5a023A632a359e49
18e64q25r37k918i46K73B09a299k102J574N5o46r3K49K87L92O9N5R4
0a365
##PAGE= F1=3560.36897407
##FIRST=     3567.10388786316, 3444.90840517245, 384
##DATA TABLE= (F2++(Y..Y)), PROFILE
1023C84a292B61k6M0r7l3A9fp4r91r92c25r87F34a140k328f51k015E63H8a274
1001f704K775L95e31B604r84E76b08p87r19n31n12R5j50M30O9N44l103a126N3
982a073n93m39j67l41q0r027d538l79a228O9Ol31J80j004a080K27K64q8Q5qJ89
961d11K2l40M3j38L39K23B73b23j721j077k141J290J691J53l004R53J99o12J778
942b714l405D182R94i40j361A389m00l26k40b517R44A738o49h87O8q89P31d47
923I8b070D75b08A573b199A64c830c62o98o07l17p9J14J45j442M9e77K41k70b81
902e4q8l79m00q65L3q49M46k61l66p31r93q87m31J04P55Q47Q15P18Q36P18a8I08
879A615e594J140J007d68k070r6D52c235K49a66k227B675j156B56a229j543r40
862c712R72J199k4935a1533M187J879b614j680i5m295a008A538d51B15b29k258
846b487J041n92l180J904L36j69K34N08q60a489M32M06c0j608n400q099j947A026
827I95l69A58d296a288J60o61l69p09n41L68R54R16a94j445n198Q83H36R02E68
807A35L84d27o97m0k04e82j886N06D316q33j594a542l779D704o53j030a274M83
789g91m689c9j589k89j202m15k504b648P73R17a88n247J39a989Q10a93o92I36
770F04j03J69K14N6h54G53j95c46j317j26l339J986L58R49R01l623b142f89l214
751c903F55B80a814J19M08L2k369h01K99q92F2J30c098J002i8o638c298C47p7
732B70j26A7e42n48o56n40m63k17K23M51J59L62M86N1k070l83j200J957L5K41
712b654a260c09m42j086l66o91f48l96j430k673a186E57c455a712C563J4o27b497
693d946E79e602m70q6a0o50l541a259q01p00n65k8j81N85l16J178N0l340K508
674b869a011O9q49k181J785J94q24m23J91R39J45k3B86J833O06O36f29m057a028
654C62J373n77D51h4j641g24o01d4D98J91A22a68j508A39J081e208l84h88n399
635f287b320r19N03P24P78l72k019j493C32g390c350I26m12j44B9a58j649e43
616d76a50G6J77M29M04M33e65B07J122m37M41k09F9b332E12h74m3j5p82I2M54
595E46a8k490P64m58A140J68c414A294e5m763g27A050D35b83j645j212J043j083
577c180k494K175j98K11K27N93M89L45N30o55j61P55r21L54R44l714C0L211D65
557d091g28l523A076N3g21j987r5B474L214p39I49M82e818K787G33b066o50a49
538A233c447D19J684N04l45a18A964j44L65n09b075k841F77J026a558k100K30
521c428A71a52l646H45a540A071R7Q2I2N22H2g92q05q02m72m7M81k492i99b23
500E75a188o90B466L84b002B855l10D49c873d46A42a002j158k876o808r356e113
482d504K00L4J59j53J27j36J61J10q2Jj09k69j433J599L51L37L53K05J13M13M76
461b047k190J199c22j942c96j532k417b156j218A76F2b672A24b214j414L61J137
444b130n98B675G83b047N36C519k29K16n72L9A211c285k944b693D572K763l416
427C919E19c073K73a246k771L6C00J032o3b643d14j030a06j254A424j67Rb47H70
407c408a002M43j08l16k44j149O93l0Q3J36j40k304J843K14K22j7m6O5j23j703
387c483J379p58q2n77J027o79n90n34m23N76Q54P80Q60L70j370R13A50P27e472
367a617A356Qo4c11k8H01j87p9l9K86a393M58F57d584B82L17a503c5k10H53K830
346C683j015j036D12c676J697j010q35q32L27O19L34L77K07M1p4j98K61J16J74
327b472L14J02L57L03l293a476m21k14l461J528R12k45J21j25j422b172c66A05
308G11b166j087N13E2d48m92q82p88k125J453L02K69K69j093j668b063J45m9k0
289a987j07j87n87n16n12L30R11R48Q44o49m0A050a467r46j597k25f35D04a93
269c3em0l66k14E96K12b820F21J999a130A146K182j554c96C200p55r72b483A772
249b281n13B621J105A394a65l83A754J178q01F44b184j302G88O83K91e669a30
231C318L24D08d259D32e05k065H9b232h23H75c003g49m376J464m611b973a077
213a037j08k08k86m44k18K3L6j164J335J21K83L8K29J24J82m8J89j302L10g4l57
192d31m70m326J079E98P50j1j47c48G91j95K26C84d465n871b727D325P90b4027
173c3528E194o77r12j370j059C73e7C46P04R62b287C233D77J538r28Q37q23I5
154h13j165r89n60K15k101k714K51K737I42N17M75c6265m5638c4317B586L86h126
136d3061l8320Q046c0080d46D291o28a582P31p43M43j240q05q95n61N10m73J399
119c216M9K88j110J040l9o7N6K6l9L39J51L74J64K61K83J90k266Q53h54G6a435
97C94J54K99b238I87K8l26J92d534j2126c824D1a46m43r7l05m18k25k5779k5529
78e2942b2262g384J09r40M24a469N0j408q834a090m165L37j254K782J584L88l52
61a770k28o1J18l805a245K94K67K49r10m294N63e9j01k34l08j469Q91m33p29k988
41e430K370j64N8K33K36N22P67f20D0N06A34b390P20j964l15c33r6A6b00A323
20b058g0A076d25j085l149e79K30C75h51k299i12D50J75B90j09l9J28j34C7%
0C7
##PAGE= F1=3557.001517174
##FIRST=     3567.10388786316, 3444.90840517245, 1219
##DATA TABLE= (F2++(Y..Y)), PROFILE
1023A219a774B35Q29m33a7m85k57L69P8j144q81B86a610B36f95k424g3j831A182
1003F02a107n225K444J87L79N89P20O01f96Np4q73h04A58a46b1l10J30m673a204
982b99p20m40n26M23K07r781c854p85A193P04P71N17a037o20E50N178J441B600
963B686A104N500C017E23J27K598L04K035A220h65j364j471j210J007i08q41j767
946c516M16j194p0N44n97a440n6j85o30J90j7N3Q7j36N78K31J62p40L99p71j69
925b444m00m60n70J09P69P50J77M16j754a007K75K73g7B03l3e68j678n61J038
906a769n59m65j62n6J47K9Q1r7K32J24K44J5j54n82q91q67n92l51J24K18K21J26
884d984K05K9K60J20j29r12N46K31M49M47N23R06j515J315d40j313E14L08M11
865A233L61L58L07M89M14b9490a0825L259c753J238j767g39j855h2C183D12J681
848B093k62c125A193k01e557K477A160j7E07a399j442f4B88Q54j09c75o008o864
830a3247j451E03K41Mn9c727a686C17b01l25p56q74j094j226R84J054R51l426
812d913m57a4H20a366d55A173k14j41rf54J35j792J95H5b56k6j195j909b15b9
791A98a160L11n194b36j218A399M92g86n274a585A369J888j85d169o88a082p94
774a876g42J93C408n5m9q0l49p71a099b00j295j631k76J539j734H35J107L15A041
754e038a496B87d434A072C47b171N72g37L57m619A57R4a547B30A03c411g85B14
735d719J467A711K54O42m68N71l31o03p11b354i39r05p66r19l10M96N26j021K73
716c565j216a840q15N79R04d84a67j57j433m10f44p57j717j852a565A17c782a296
697C555J48o63b608k465g6n135j8k77a264A024c621a08q54j057k08k36m82L93
679b552m45J310P5k881a924P66k57m00j531Q20l62n47q5L50O63M34p86a208e34
659a51D86k21e532b222g16B012L0j66k49a872e99j211A305J584E71h72L74p52
641a250E87b01n235j00a611m592a353J18O3l3L7l48q46j228a229m682K543a156
622a307J33j09o2j97l58k48j09k68k94P2K11M02M10L97K08R2J95J53p1j711a218
600a980k81m17M44M95O01M08j673L81p92C93K48b682d4j63l800a762J86O60d1
580b738P9i22m244k345A659O92C21c57A052l72a571A07a443o17a8j253M2l3k393
561c655a408M45a50m979A742c177B366O11h98j140N79C070L574k344H29J48d732
543a581A346b279q66f30A673c513A28c83n43n61j71J16J43O56k33n98l583i0B8
523i95j893Q34C29J96c917D97a10A015N14O92F6L242A207e2A966J584A95a325
504a587k857h75q20n07j43r63g33C68a647B110j37i1l723A5K296j072a4o195j0137
485a6346j3818d004a969P13N48a14E2L08r9N7j12a83l59m73n72m093K225a542
466a381J45j708J380r7m26k264L06J417m70l34n69k39K46L34J291N76j493e37
447a902j080L3N67o26B281G68b194O20C223m7P3m05K87A379b852l095K770C931
428G489C682G44b206A89a994k019L07h61L15a15k624e44j615b20j274g25l40k92
410a357k7J80r31h51K82c9A71J57c132C96J79e41A27h68l157J817F7a502E71a052
389A510R6c068J348j464j14J52d74o79n27m45r63n05k27j60O81L49P24N90N59
370a077e16n686a449E03K17J5a054L49C94a13o36p96n09p4L96K65m497F62k75
351C87a530C32c13B66M879K76A800E61b000e0I93g75r64a8k247j060c20A23a065
331a866C5b159c05m79l83n28j31k6o15J79n19k83k762K075l32M55O02j93j869
312e114b044h75L42I7b324n38M08A507L27L26j47j96c613A105b018Q42o5j040
294b281j949J348L17L34M49k9L3O36m2j51q38l13p80n33P04N75N56L56j002q14
274c424j191b011M93p36j91m98n61l75R28P55P72j057d51D47b072e6B687j127
256A560C52L609j834A74a898A026b521n10h73j106o86m25L8N1M57L78N47m61j569
237c649B90M80P10f177I56J794K58a156k968b03l44j287E25b324a000B19c234
219i56l064P43n831b123f42j791d55l70n32p74o37m16k92KL00M96P31N06O58b95
198A62J31K76b765M02g0E10c7m947q60f97A265K72o09A92b26k87a31l72l931l263
178g697a002D408Q63N03b877F071j65k68o39l64l45m31j05j02Q0c710C458b66
159D68N8L60A46f07j441L39l63j08j56l036k856J029R53A558P02O58c2790n1678
141h4468L7435C661K57J79c0149l9428L851b7954A253N995j123e89K44j357C557
125B457n99a780Q76H3c507J363o10q1n6B605I45b108J049l10l47a53F84B79d36
105a147j100m66r28k9N65Q98P82N05c81A92b210E16o8g7j11n482j0027a962n77
86b539l96l31L93K88J02J66j8764l3909b7031i844d268j060j710b727l46l88o956
69a0417c602j108j57p31b731R59P06j86j86j01N8k946g14b39B66M86i68m533O76
50d825A342k87m95g0k433Q78n49p26l301b090i13c89A9b119B47p4N05m8j60h6
29c453h08k452l45d07j31j9k32j62j509a097J93l54P9k631g37K73a04l93k217
10b714e1A188k29B43K81J60k86J707J474N31
0D110
##PAGE= F1=3553.634060277
##FIRST=     3567.10388786316, 3444.90840517245, 277
##DATA TABLE= (F2++(Y..Y)), PROFILE
1023B77b221B75L56J112n27m68C42j0f29j014o80e53j316b24m4k305C22a260d40
1003a461p36l635J787K36O50P79O11M17M72n23N37p07N4j95o33j53m90J03j704
984d591a912M23K91n71j176C7a167r495c156j096G164O67C222K37f30J08J42D583
965G413B556P90A591L647j669B57N31J863J64K05F38a425j056j846l56J099c90
947A366b328j2j960J52q70K086A614J88f54j820A059C69e40j059j084r06q71n60
929e020N74R90O04O31N29L25L1k40l03m68j075p94m56j07M31N58O98N86K41k33
909b498L5m01n55k25P0M75N25O18M18M16p38K80r12O54F94a880A34g26j020r18
889b664q76o34p57r04j011O89J008J313J263J101l894J87L87J865j138J819i97
871d360a949h36k2A769J527j536J67p63C79a90n95l3102a0899L487b899j37j472
854d508a931Q81D8P66K48K028M84c933F565o91e808K809A479J420A45b342l16
837b658E94N88Q91J292F11e761n674q91C330q89Q63j587c143R10a008L46l52k81
819a295k87f53a31B72M14J98c370j207h33B90c224a109j33o83n06k54l13j02j31
800c231l7n9l41j2kK51O68P83R16l14%n375a148k49I24P73d50n680a578I02K172
779C074k54c122j166c94k461J297c11D333p48P86k37m18o76a530A521o17a565
761f75m29j021R05p0K07K41m768i90a52m869h6n5k508Q74f32P1l328g50j87r28
741a865O84p2k464a061L60j985L46C81K61J80J57k66k66E2c17k604a286k83j41
722a710l68j6L41J96k888J364j664a278k549a377e56j63l58l85l08m04l05L2j493
703c940j022b148R13k879a297H0e7A61b841k325h39l839K50k96J734m76O93J10
685b663J70J57J97K13l00L52j025a352j14k276a594J35l33m24n08j04k70m78j06
666c682J61K82j11o3J95P82N73Q60c90n114K559J210A575j59J017j43a826O22
648a204j027I28J383C03b166J021M6d90p11m574L30b466l159a761K8m6j12K0r0
629a961J24l5O17l424J142d41La88Lq77J38c69o7P0k63n7N4R9K52d6C02J88B30
605I15K93n22b655B65M59B47O0b59n24l19l09l81p16o05a230lk07n09O1j393R1
584c190H86Q57M95c914a937b60p071j834B181J631c87k30C86P60b304I1i78j024
566b002A392e58j26A853b458A920N76D87c034f4k247i00J45m19n8b05A432L61
548A793m1E42k49c614c00n76j723m51i99E20c010A84J978J42l13h36A276n24j05
529F47c52p32l802a080K50J54j637g81G97L21c553B799A033L033k75k78b70C067
510B58g99A896K181i25l13N98l066a58B253b848f01l992A028D40a077c41j59j46
492f46k903i46p38j135o86l237j1215n206M367A477P80M76M09j07n2n25m19o21
474A418E04c85j001j096l165K039L67N91M81o90P60L2j338J04j739b485k23K6
456b682p7q17J347j757a220Q1k660a275m53n47k52Mp51A736F03b463R03B681M20
437C101j47l40O07A557b320l000K119C308L016l079G84a308K3r76j798N45d96
419A152M60b821g69j824a99j336I70K22J037L2J52i19G03J214b2A103m26b848
400c24r15j009j025K92j034J890b87j089C86a457A642J50b771J033j755K08P76
383b509A149O00n12f68b16n28j129O43j34n63j83k88k63j68l813c000j18L9P8
364c001p0J51M38M49M34K87L80K19K2k768l035a206m25l89m27k7M90M00K07K87
344a090J30M4Q1N5k4q34N89j166m42J316l5j18j99l50J9j20o5K05J34M75M85K02
322g08p55j471a275l255K094N61L80m27r58k485b658J32K90N63n10k54M80O97
304a260M0J02k89k52o97J02m32QL17K81q79a464L06P9O0j533J029j24r6M16o15
283a942J62h30E55a82j482A950b42j841K71j791L84G71g60r31j152m94N01J234
265a602P94a91j503d45C96b174J018A033K85qQ01j01h87J27E79b701o61a212j180
246b392j148j275n13O59J015P89P53K10j900h99J00l6n230a161J16j7j258n61
228b881a284K08k9J21j300a100c45k990i97j792N25n693a158a49k877A795l46
211A449p13i00B292J3J8b931J125h42j706B935j193a421M27C757q8b949M72A4
192A416l47c780k805a418j140l73K20L09M49J97L76J6k577j027g31b13A49K07
174C56K61N7J24J67j10J90J78J6K41J56E84c965B077a279K70F03P26mM2c236A670
152A303M64a011l929k745K049k54A135K15N19b8483n4793J7625D528J033R95a4586
135e4248p48b4832B627O877D465C57E0a862D336P239r33a306L96A136b210J075
119a135j439P9P07C961j957a667b71m95j544G8J978o55Mm78d120f95l044J104
101b635N49m22n56p48n75j29O17L64M49J02O11m841o351a502L71M88K95C02M63
82G65L16M36a7734m4386L0080g390a346j296l782a637K49r56o617h96l140o70
66d706k82b055o61p83j061r11m65L11Q23P17N48L55J74q6k416Q63J756M99O75
47a717P85k518R84J034m3m037a690B03d93n39j486h65K10O4m55m82m75k796K040
28b759l41n54J201L07N49M46e70k049F56J010F57c63k726c0E0O6e67k041C67J039
8A406A06f34p75j509p68O36J514A15
##PAGE= F1=3550.26660338
##FIRST=     3567.10388786316, 3444.90840517245, 3159
##DATA TABLE= (F2++(Y..Y)), PROFILE
1023C159b737A78a7A216K298p39q13n93i69q93m27J097r94f88b72j779b31o66
1005h97a51l21n6m728K106n96a065J24L1p8O0j419Q01m11o99l73p86k94o18j8
985d745M11M81M47K77K74j053a015q23q513b567j284B001R6K4k98b56F03a403
966B375J44l18q3l08j85m03a17e7o60j70j53L37j231q95k057L55J321c7H46a583
945a907k151N2j976a779B539M53h80j970A401R86o79c72j188d71n63m76j731O96
927b545r48J70l0M8j5j14p0j80p74n46l51j94M01O55R15R12O56K43N21k87P3k26
905a686l41k65l17p7N4M10J79L33q71P9a63k635A50J199D23d82r11n161b824q13
885c637p84m11j11O34R17R68k988R8j40R83n68b307K41k247a347J0Ac60j002k53
865a615M56c23D73Q07N08c8843a1364M117g75j679k488a705j95j93K53g02D98
847B102d357D705R43e975K963A158J582a69k938L36I36J096N78K01A372e083m675
830i758k81C460j172O43o94b491k32k47f13q7Q2j685N67A384N84N70p66b221j521
[...]
200C81a434b59n16P7k52lj34l35j36l4k270m95J006J47P32b55A88L07j24P35a541
178A495a691j8200j6076k9756k4763P185b7858m8213J5451b8467f798m870p852
165a9520c223l21m51r5p2O14P89l274A88Q56J610P62e557a785k606B900b077q84
147b961j003l805p440n026l3029p082K6093a2639o953n0271b9999a058A187N50
133A737b329A124J62J25F50J135d203e79B830a006c73k786e2C08a14m26J2j156
115a684k084c91j685g77K81n83o64m31o49l716K594n69r9J9M85N96J056P35P37
96i85b68B47b08A456P92O68a797D421O47d506F470J12n62l17j056r73b9149n888
78c5037E54g756n156N61a507o72o87j487p22Q84J775J4k6n93J451MA101R86J38
59B225M7e63B818P11L81b604G78L18b233C181j087a482j593J448d53k207K37k639
41e062a004K23l124J322a219k12l24l61o23o21o10O39J185Q18k040gF52K88a124
21b601d31m093H2b780G88i80p23Q17N8c42a33k27l93n6l88m6k44m61m08o46n51
0c553
##PAGE= F1=135.6653102769
##FIRST=     3567.10388786316, 3444.90840517245, 762
##DATA TABLE= (F2++(Y..Y)), PROFILE
1023G62a975A42N42b918B47a46k65o29J48j20j969N17j742b54k029d2A770a612
1004c957J37D65R18qe68A059k0j06k12a360D44a858j523j50m783b641b41l17Q8
985d70k440c5l66L6l23m92l67n67m36n44p12K49M22M06K50O84K30K97L35i4D04
963G52K62G2b46q49G20A37e63r30j216j289J350j77m231a798j24A759O36m22a656
943b182F49A43b23q44j650J096O77p02m80k59J63L47o4e39A4O13i3D61J282N37
923B280K59j224b444l540J949A834l35G03A22g82r83q77o42q98k72P81Q80O82
905b111N95K58l677a714d32l223e36p78K32k431i65D38a968O17j65o92j030J60
887c078m68k17N1R0J04M14M01O40J38l2k12j91l47k86l88k18P9m53M37Q90M23
866b223N17J83M85c65b4H35c1204J1504i697l071e444J738C667n05b721B054c346
848il501c93j76Op0k13A88a592m022B58H8i90L61m55m54j186j663J120m42j312
828e021K81o95m30J7o8k35M37O73R81J005J231d59l315J280a205A661K40J871
810C772J91Q2A424N5C80c013a096k852g40n29o89m68l78K17L39K88L56O04p1K66
790h05q81m24J024q23A94h08j534a168l508C027J80D43c871J689E04J125j67b405
771I32j25A6h41k853r08J638n63k52l56K6L21L08O04Q42K87e57j805R71e55B169
750a309j544l8a041i6C176F42a180l5j111C793n28c521G06a279E03J857a266B417
731D344p00q22q66p71n19C24b229H64O20j79d19b09B587b2k65L0B696p11a11l35
711d46j272j060p20jQ41J188j09k280M47E26J656N45b767d49I83C23b851n580
693h431b217k835j793P80h59R6L05k36k244a027g1j614M43c60m000b095J11l321
675e305J997l70k57P2L20N35P01L58O15f44p83j316M64k44A726b059j368N37G65
655b20r97j075q85q88o79J31N39P84M72O89J62K66L18j527P35j091K11J19N62
636b374L14O82e54A78N85f204N83K086A389k24n68b378e88j090q12r03n22n81
618d496K73P6O10M39L30K52K57L3L05K35j566i69d49b5j021A34O57j96B38b355
597a275P5l337J420J103l260e44A338O3c380j692K050p93c8C120O61j851b358
579i82A715J735g67m744A714A74d364r20J000j006m36O88Q33O58P99j929K186
562b491j27m036K862o89J36M23K31M09l7J092M09M22K73d57a93j069d15j296r425
543a1136A061A49J539J559D09H7a125n28A496M090A496J519A450b07j099r41j691
526c938j214J920P44C71b94o73M00B62a51q20j058j329p27n28P72Q26J139Q35
508a041A11b044D14d89A415E2J337n49a32n10l80j507a256J02K46K75K97j083
490a419o875a189m43m76j63k79k38m4o5K74m8318j90939J16992i59j45j5547b528
472b256l13m216a811j200k440J854G13a762J04B773J99K64A068c864k043P06J52
455e049J197a862g38o36j788J469J45k568g90J70C7d888a980I49a292b35l10J4
437e31B910b934n50O12J352j825J485A550l71f41k537B62J347A50c101F34l06
420C28O461Q81b333k892E278j039a844D386e27F49d397A197c073H53d218a425
403B933I46h21C125o15o08d59n07l244C74f21l186g16Q8k266j120a415k45C07
384C0a92j20j58j308j927d02J32j056F88M94j28a943k193c15j190J17l07j191
366b886A038A68a334e44A00d41l69m97m47l049K336l46k84J01j53J35O85M41M36
347a452K68M26L09K21J11C36g48F25P53o24f06A519a543B50g47j981k183J551
329c360n41L1K52L74K45J22L3k9P9L42P06j469D1a20B13J675c164k685b514H46
308D541B084b156P08C468K964L647l205H42c132d20A819b417j539a135r03k087
292d125J939j845A476B51e787b481a66m37j867d8j69E24J418L67L2d07A630J53
274A783m62o56E3f98n85j896M64o52k44l51R8P33P75P25g93a50p72o63j708J147
254b146B199Ja164E89b399e65k5k42l96j830R62m7k26n9j54j29j50M52N86P41
234a082j452i10C63K9j40c846g36q58r75p66L10m58f65H10i40A288J786j419n52
215A103K107m03o89p23F72a73j754l586b089m84m85p29j57k91l06j80l4k07M57
196d505L70K04K77K26O3K95K5m70J084K21K66j06K9jJ46M89j72a66k354j7769
176b0289j8708l2841k8347j0480M4446L837g783A90d48j449j9764b297o11k32
162c140P81p81Ca490o385I13b96D557j338e481b16n500c31l414a732j356n953
145i041r624J843l0664l7491M0202a2540n471l9898K5886g820C593j77d438G99
130a61q18o00m4l619a281b11m89A0b973b87F35I4K660c5k41m763a366n83b09A592
109A320R78N52e31o747A878o06a892b99q95a39n41j540c41j4q1J32J00I7J30b152
88D78j8a202G65k95b41k24p41m60m0652j8507b862m942p738J737d178n75l27n44
70e624O59P92J042P69l77n41a489j56j61K43J0J51N33A42J449J161b445I4M28
51E22b360E196k356f26j727o05A885g19j429k236c96n41k918J803n65o88n82k18
33d105K04Q95J075g45G58d22l362A158L187J59a798o37B72d104i5k992b49j231
15a480j311j242m43ON33R63P51R36L87n87c64m03n44r14q67
0c092
##PAGE= F1=132.2978533804
##FIRST=     3567.10388786316, 3444.90840517245, 1456
##DATA TABLE= (F2++(Y..Y)), PROFILE
1023A456a583B70J28c686h50n99l68l81j65j39j9J92j645b22k419f57A824b629
1004d139J120B36J25J013a79A573J643j104m77a208A568a390j776o33m623c685
987f77E8R9c044E52k56N12l81a258E81a87r54A82b353E20k09He20j62p12p17o45
966b756J93L34M40M01J91K69k85K61k45k53l14l95m32J72n64m710a578K57A709
946A043l13a974q62H06g44B00Q6b636N05L37m69l69l31m2M9L80J11O%k42j75q9
924b965m4L16L05K08m350J170e55a78AL59n9C1b91k082J090p19q65o93l54P26
904c188P23j401q2d0m954h04j046R01k133c2I20a237L34A443E88d751B070n12
886A558l70k54l95a6l41l73j02j114q0o92l94q2K84K30L22M68k95j625a272j56
866a428k92q38p23o80j064J38k1819R597N861j911e189J566f24k09k864a458j326
849b784j12q26L43J103J015m17f10A273a010m235B664h24j135C7J492a990k147
832d137N37B632A092c454i82B30g91l305J849p97q3J66M63M92P34a03m589J721
814b971J256G81Q5J212J33J26o22O58q93b433h67k728a464d47j578A289k15J12
796A186j9D59d06D27d24n14j083R7L72m80j28j24l5p1k116a954K20N05k749J078
776b900i77A216J53c085A209J51k85n26a823k334a641o42L9L33l45d5j909B24
757A623a938f02j584a032j068A781B53a945K15aA114K494F05a141p5o69H71e9
738c398D18b110e68C061f06B403q14G13c68j225j216r11k63P00J041R83L60J24
720g75k93d42l68o51q84q16n54K57P87P40P83e12k254N99Q28N08k381p36D70J582
700B052n0d187e61A098l4b990o323e02n746j374J737B71L53j89b3j645K73d92
681b366k01d36m107a639O46m690h59k176J430k73L7L59N76K02c09G7a300j874
663c174N65J201B7c98j552k268J975r56o46j72M91n55J508L58K52L87P1L58o8
644a215J68L58j419j026K49J417f97a24o97E15O47O26N64e324q86P05A167K566
626C733F1b368A969j31p70F4g49k989J224q34J82N86P38O84e77J59J66j474j867
607c593c75B00K5a356G8J697f83k50k870J608O62k654R48a556l327c67J11l61
589f17k957k66J280j411B66J968N38L32a319J89B111N38d42m028D0a251l835Q40
571d246n93o40J48J001J068R59j468m46d94D54e952a690M65K02o24j673m18j142
553d880J585j39k2p5M29J23M99M63L91r878ij21H46J021C25e2j115l23A977R08
533B885o31o30F93d46q06j014j191j97P58P87f56l40K86j29b84C1d19n31k132
514c082j301J963J05l9L63K11P09q5Ce86C50e37A811K61j41l46l23a745e10B894
493B728D54l3b716q920a173o03o84j28QK27M63L61N86q9499k75955J60186a0305
475A857a7160c559A215n62e562c3l015k160J358a631q01L17r4k31k2m53j248j246
457e409P90n60M02J334K52j07N0p4j37j348P64Q0K26j814K704O30L93M41N16L9
437h28K37k430O36lR45j854J582d68J45D8b675e4F32C06c320g48G94J794N91a724
416e411D669j477b065D301F6J016d961D99c679I00b513J067B044C26a336D542
399D729j816a60j403k609A755h63l242C72J182a992k908b112j53b33l09r8R7O4
381d79r25k252c77p3m67C1K74c2k310j951b83r78k70n48m51J173j81n78O1k14
361b269j99qj58j53l185K850k69k52J30p66J107N15N01M59K47L60K19J12PL67
341c85n72E41J88d79p70D97d4F65c17k979j358a077a90j10l15l64n06j823P30
322b578m76l15j10R9l7J86N41P20i17j926l302b515D80L031j721b541R85B598
303B031k00j86o3c778D73J505b904j350a821l61j906a425j667B007a41n777b061
285C7c77k119a205L9k01l4j5k34l23l15j18p6J43N26O06b99k529F78P75a435A544
263I33a941F80M888k69k523a001L27l003i31a71r69j086p25j091o81p82Q20Q15
245c870L23R28R46P72D1L42a853j988A482N16E50c182a261A431J44l08c741B07
226b44j862P82o42k14g74D8d05C83J211o08B45J767Q75p0j42l12n14a172n414
207f586a950J04j385j153J138P14N05M32L90P4c73j59H86a621k138J654d74k201
189b675l89J130L22N33A417J212B86b203k167j22K018j195j5984k3349l8044l2661
173a13707K6324K3895b1182A390o66i3n51j7324b272q23p53p0J1P20N27l367a066
155a611O32o40l743K187l856K956j500b412l23n793j0852R055k3089n1904d2589
139e851n094l5055J2160a5276a19j909l915b324j293j151p34N70j739b150d27
123g32b06l036h63O9k79B903e44E42e152K395M51a40A302l02J826L87c54p203
105g557B634l74a125A76a519N49j885O58A58a53l48k20K06a74F8b622E83N9N15
86A157k82D28d75m18q99n25m5978l2626a3090M765r583L128c324j77J22k62n79
69d220J623P88P6j627j25a731o03o31k49l77J73Q80a209D03J192b170i62M79k343
50b826C706o17i6j360l243A481F98a546k664e63o43j949P66q19n19l85j83k45
32d540L20N52O55J064Q22l232D59Q18L71b832N05C56d210h75k773f41p93o35j68
13b237k28O17A015J41a012F26J688a948g67F151B840r74J279
0C145
##PAGE= F1=128.9303964838
##FIRST=     3567.10388786316, 3444.90840517245, 1909
##DATA TABLE= (F2++(Y..Y)), PROFILE
1023A909a514A36J969c050A059B99h00k53o36q41n71m20m50M41N13O98P68k264
1005c815l24J845a85o95A163FJ904L63J73n4g22A243a068j999j226l240L114a129
986c71k01k647e20n0j68Q5j466e3E41a126a62k258B172O6j63n33l02B30i57j360
966b317q68m25P23R30P48c79j019G04K83K11N2k52a399j013p64m491c596p10k
947d308L39P11K39m37J312J64j17j68n12l01K14K15J73L3K20K96O73M71c42A25
926a228e62E75j59j27a46j643m110q31a283M82a34I80Q39O64c63k162A950q12
908A138a210A090H6h67o24j139l326a672m086h23j419g62j819H84M95d30a94A173
889D09f160C823l56j91p6k30m27k49l24r6a526N81k15o1r27p10m75J40O55O9j915
868d384d82A2M21p9P5J37B60J67b1464P980O11k09d579J203A090l06d283A538
849a994F35a920N5J47f08k073M21m62J15k382a251m68j165C86L60c807j677b413
830C454A173a757I2K248j124d128g62j186n28l13m6j7K58P65k907J867P38h69
811a018p01k80k20r5M56O15j50c97k588J047N88j180A899J60L96J38H6J162N52
792A800G26d61j678N22K6m36K20J36L0p57j593a884l21j11j888Q32J028Q74N51
773i19k611c16p4J01j42j02k807a253j8N06b80j184A373b868I51J236a926e11
754a951e77k547A347M30a032K76A007J245J431D07g83l74l52l22r02m05A05b694
735a768a32o12n37n66m60n55o46o44l66J08O97R45R73M79L52r84E57g84j390i06
714B126K36i94A734K22H76f84k455P95a150d1k684j506C76J438o25c903a64A345
695A461c074o881A35f354j848K495b17B6a40G74a91j579Q60j066j545c72l899
678d271a302p7m545b099j125D64L45Q8c75A195j98k36l49a181k246O91K83m45
660b898O4Q41l347h73K07K31J68j024l080D76R0J0J78j28J72k44PK13a277l085
640d362K116L19Q96b90r62M96J26J73J95m181j627j406b23B27a110j210g43q37
622a580n73o84k88j90L63L30R40M98g9E69N27k89C34b055j579a182q87n54J66
603b457P25P60j055k46k727K035J355j455L34P05k552J88o45P67L01R89P69k080
585d289C99K777N40J67d88p52B275l39c10k882a448j147j913J011K77N24K33N15
567a948L72L54l912J375a006d13m553h13l61b70k88l020l43k767g92k04r3r6M75
548g10J83c0B74a881r484C74d45K00B43b9k01r65j39A64J00J3J98pk00N5b441
526c215Q97O16r72r07q26p19R3K88L64M98M04J51j79Q64L71q8N9k83J11N0n2L93
504b082M97M34c48C29L10P72P68g42K09D012K52A209C61d179j0078A553F25b37
485f14k86l4L26b17E45b1610l31862O3953e6151A897a7505e123D045r23d250b26
468b901j940P11Q05j233p88k95Q96J295Q62j895n47J275j574l31b361A961P8b130
449g94m9l107a435l70P2l995K816m76l69J55O10L06N86r84a531m55M86j881J569
430a812g83m5J60j323f68l9J77k707J148c89f4A58a283m254A554Pb400A416E28
410D78e215d47m081a942r28m14P5O71M53f13D17Q28B22b028j868A751a192l060
392d252c51B602a185l068J341L8e02B22K26K949K46i44k627I02P5e91B958m0p47
373B171c033j467C27i62p80o80L90N80k20n71R9j84j85rj66j50l356c077j62j10
353c349K96j605K230O81n77e42b15A71J96p8q6K77h20D27J99a728k48e28A385
333C540c68l001q00a136A061P33o23n41A13c762i47L17M5K10a7l540g00L44o66
314a022M80j518l436b487i11l7k46j543J053K14k15J13L6L1k988i10J94k349j268
295d333J726K20j650J876m4L53K73l956a380a6l47k024e92a96D00J565K15p44
277A436b602D10e31j184l71N82A84Q35b376G96J166a398A115C11b026D97N368
260E865m76B542f11B73c346C34d15m22n42c63k130A8h6I4c8l653c99D37g75B727
239A179a830k630A233O099H55c776a269B606M096C090c655A22f65j599O05k71
223a930h62B9K04Qe41H29A09e94G26J404J21Q7r0l04c41p389b210P12m0n57A270
201A097J387A097J181J91j223e29I01b194k875K520d42j868l08J226M89c45A543
183D199p97q33o39b854i64l453j1994k8644m4593l9829f3967b1545a755m6l86
168b187n05j76q441c238J17J25M57j293J659%j722a491q51P58l23k813a945n128
150g073b575l802a004j443l411r749h66j6631m8000c1598e1j025l2344k7J2371
135b1076g466J048Q08i14c97j226F14Q4g312b276A898e25R3k976a213p77r30r30
117c850m36o2M06O1Q76N08Mn5j08J89om320b335o0K96K09NK37k980i18D39O2k14
94B87g66a86j18k25k223f59m9a72j78l10p58k74p36k47m0109m6034b3455h968
75a5803J203c918a221n8o23k629a798P88n19k237O53g63c8k27N3m41o70n35J03
56a755h41B9a481l29M18j746C123k03E21a85n397A197P12f11l528g51q6j162n7
37b056J62P28b81F98a193B168q90J571A321a056l620H96J486o51c672J658d18
19d428a805k020a616j05q0p22o58R17g82a20k167E01J026b356J045B840J12k38
1B714k34
0B480
##PAGE= F1=125.5629395873
##FIRST=     3567.10388786316, 3444.90840517245, 2422
##DATA TABLE= (F2++(Y..Y)), PROFILE
1023B422a459C7L542a536C991n17a074c46A385E96b647j26j159a564j378O10j77
1006b509k272J078J055j54J20J26L9J4K68M51K68L41J68J62k096j909j350J735
988d465a267K71J29k407b20d6m1Cb992h14C95f80c12k104C85j23E1c67Kn06m26
967a297k85M61L75b62C04N38Q22a560C277P53P20N42A899a567j076p91l691a392
948a897r40Q6P29q28j168F65c287A478m20a901l75K99j091p70K85M02Q63J061
930a227e67a8E05a829P59A179L6k19K91a316l441l420b638G60q7K44n9j92i13
910b481c61p22r24p24k35P99J033k32m874a418l532f79j878f10j524A621L6B66
891F06K48G7f948e15j79R6K69J26r5M7n5a47q43l54j83m55n01l09k71M5M62o2
869b618k429d43C73Q95N29P94R30N01R49a6790P101m934J993c982Q38B950a336
851d394C010a158I33a174j374c51B51c763G1b94n44m158b090n74j181j6k83o76
833d820j885c064N09O46P84e56a8C27d137I88k12J30Qp1l73H7B9c911J637k34
813b508Q42O2O89O6J0q2K06J88l2k1j765J14Kp53A15c0F0h2o34m49o35j274l22
790c396R92R60f80j381D30M88a172j835m05A933J499o82d704Q58J25b35k89l384
772c908f08J7b29c8A83b424c60m19k17l37R6L77k989d18a73j702d74j382a84j879
752b063G06ld19a89I24M8J67a44j31q64k09l61m54q33i49k218n8n44QP60P29O32
730a640K85q3l97o04r16r17p68J466J091a080j905A093a365j831a313B828k28
713B600a424A055A41g35j012j896N57j46J43M87j823a805M71O48j999b49N5D00
694c224p277A744e737k896K950A867K614i63A593l28b205P98J32k771a89l670
678c859a135m63m354K961l8a93E1a67j065H66O66C90g57j291j556P03i97D66J305
659A771n59e982B0J847P72l61h47l342A677n83n29j75F9J27a1E7K47d80l460a453
638b397M77k47o44j96J27K36K59j310j819l744b044j48m83l68o60j038k97O79
620d359J113Q18a194d84F06a573B184N91N00I22k81b410j041A911q52B47a799
602a466p91j077n84j612R06k53M24R59J163k037e77B252O1d516K038N80k783D16
583E153Q25j598A09a286B253K914c86j554D420j296c568a133A247k07d63A27a504
565b17o214c208a440n51j741P34J25J70K76r92m3l880b123m0K9m3M79J28M29K69
545h72j489q436d6o30p54E58A25c25p50K6F24B48c19l92n08m74J34j026m93a073
524b2j334j329J51b64j272O9A919c546A558a769J07f19o53r21m02k18O80Q92d91
504a35j843M03A758J04l51R9J13D74e43B149K5l95C26e447o368io46o00j39r9
484a493Q5L82M03A23P23b08331j04111a02074g549j0232g017C180q28b998a339
468b354j878L4J201j095p79p28M41J547J167k161NJ737k424m36a323B110K80a173
449a702Q40k038O12j34j83k759K344p51r42o05O33O32R22K07a192k99L5j933J461
430a928C24J44L00a075O9G10c20k507k61c39j94l21M8m586a058m31j108M91n15
411b621j9k116b179l142b027q8J18j7N0q54R55J00k7K69o25j300a414j46k462
392d022a920Q3o7r87o56L32h70e6E88K432M90b15l046A580k25a68B201m40F92
372c776o41a339m52l14l82O86N84M32j390e35a81g5A95J06a52m891a382I16b080
352c215r13K052n2j06C092k30k62q07C12a547f57a23L2k32k379J16a205b8E4b17
331b826p26a006H09K614a352D897m78c168P95C084B93K921G68c493i08A88a316
313h49k40l403K203a136c92A22b419P44A503Q4K72M9j02e147A760k74b640j330
295c970O79P39j269a435L55c45M1m483d45A244g79j304g27a66C24R18p7C95c575
275a544r26q82L85P52N84O67q38c27P7r40c37k51j465h09m42l74m37j78J23l81
255b498J163N38c08j401B53b008Hb81J20j19l159h77b75R7A001R26a404k787A053
235E095A312d275g77C904K643B901c615I7i04j470N57J97g90j425q85n86R04P31
217b051O22J26f47J03j80k52l46o02n64m575L465J354a036o97E37L24J54J03L5
198A153m36L7e48a93k280l853b834L4j23J02M27L73M46L11M28K92b52B33c603
178b321k214n902l2034m9231m7358d3615C062n76k57o24p00k32c946D84J64J62
162H10M16c267A378a990l4A214b769E40i31k931g50n688K654j606a107j270P5
145b302o660g83k638m7419a9969f70j70j9794r386O479J1513L247c812B700K42
130B942b707A305C72f526a609I78b62j397k016J052l14l42f17j070A555b405k269
113d674a761A8O25L36J454m30A25e839b27q92m93n30l46K01l752a740J18L6k22
94a808k54m51m28o86k26O45R01h85b82E5b16%p70o63k6615n7179c0808a0164k592
75a2756q28d227a007P4p67l409K451m52k4j074J550J284L78L81E1J42A0b178d04
55a60b1p95j670N4j109A710j76o79K7d686G34K74H3d479a252q21k37P2c71G78
34A887j27e88B679A282J086D13a568l404A111R4C7c968J953k70k667K267j014
17c699a501M45o70j105j067J571eA49c118e44q87j571P77A866Q48J438P97
0D949
##PAGE= F1=122.1954826907
##FIRST=     3567.10388786316, 3444.90840517245, 3034
##DATA TABLE= (F2++(Y..Y)), PROFILE
1023C034a365C7M073A15M479j98a185c91B651j008b910k11p35a7k414o1a138l997
1005e135K134J128j98j029Q57m64n66l30j25k49o7j25j4J7j213M80Q99J34j22
986c988L93K84J163O61M58d42l552a784A124c9k12k211A889rj02l10D76g45a51
966F46L81L8j56P33J85M31a853B790N75M02L79A478b058j122p91k783a643e83
947a956k859J350j25j114A16e060B180K142a511p03D07d55on87l741b218a032
929a400l14j54p88N76J29J18L25J31J31k567o080d623a903m62j98n28o16m89M8
910d148N61J034J007d08F01R44E03c46m155I5d019f59k355g22j292A886m06E64
891Df05m52m932a171j20K9J07o9k72k7M6M93K61j363r2b94j665L52f27j77j9j285
869b108l941d07a12C81K68O75R30N99J127a3672f472j0147M563c735N57A665c799
851d190B895e17I91g04k725A369k51e083F9J986E06e435G22c719q75F13e50m243
833d793p54e79C614j304I90L99O610A608d356B170N979l251Q19K69j117B417R75
816C392b839J357j349o07K32f02n89o51p80n85p21j3J51M5K36O5r8N18J03M93
796b428M00o8L73J26o04k91j96J081N73j236B68R56h63k903P86A582O22j73e569
776d489o72H27j36d345E83m2L84L10M27a600f04F70O07l80A4J003d861A058K1
757A079a887f16j406d67o03l10o44m49m68k96l13j65k36J04j9J7J19K08J05J85
737c232l50j381a678M45L67K00J82k5k27l71m11n80m66l78l42n95M48p72K080
718b123Mk162a792e10L7j427P09l72k66r07j537J182P00K2l01j937b136M65g44
698a559A059P21J361c465p547A968e110l767L055A730O250b032B264L37b660O89
682a971g18l436A07c448a107l84m213K728M89g59l45p6r04a030j356j131r80O7
664d430P10M71e30E95Q55Q98e783a261E01R88l77e65l083h70p93p27k83l27K19
645b781p2K25M02k44k41m14l74k83j95n72L9M05M45M22J53j757n493c490J444
626b046j599J232l41m66L30O78i91p69A520Q10J202b018B058L079N7A501n57b593
607c087C794A644l29a769f14B72d422L87j122J818h32b73m77j376k062h45B201
589B175e145b264P39l516C73K795k7j71E12a221B044m35f71o4B98h2k504c04m2
570c46r0n19k56k94l77n365b489M6L23j42i21j1K45j827k80M33l027g7F12a036
549E51L73p3J27j42b940o898I0g58j828a41L3j86m67J91D91j97a04k43m30n18
529a295p4j201m11J364K56K07j934L44A53a537l99B345d376B624i0D35J196j0
511A621j38L41E04Lc73B004D92b844J107C866P06B111m95J724j537d86C815K00
493D015j833C58f254l423B546n23m45N7R4J87L21J46L13J48d6732j92025J08073
476a30684g607j0659R063F12d74j398j44o13p94o12M63m47N55M35M93Q85k64k621
458d536L80a944l114m6a24A526l86a91k252h64r61j062m3l93j505C97J612f60
439f38H57a344M03j667R3o54O61q75J283B63P60P79g8j204c37o21j359j147G50
419D17B1c78m722A24e2k671a69l85Ml168J643l770b67j35K2K4n80k675a392d93
398a080L18j303r65J242o06j269j04m24n30M52L17J27N60K37L16L44J29l4o32
379b905J12l90J26J20M82O3k301O02h52L53j491m47h38k74m92r39N85O38c72I06
358A942E78c445Q21F289b775P0n57J434n28N40C748J311j683A379h15k664j203
341d682l63J196O82l87K54J267K78K97M71j158j009i39A151J695d384C663P7a820
322d141B048d01A155c26l159h89o28q17n78k48m88J019J86K75k8N2n3K19r4J87
302a885N3k2m212a524J2o40j357n43J029p57a313N55a5m08l782B76J56a342o35
283a977R08N02o20n62n28m16k044b071N47K72j19j329J191k69o69o24q41o12r48
264e472n66L11N58N13N49L51L92M30K39O92O32f01j909A254a680A828J963J097
246D888E32c279a632B255F14L638j990a113k591E77L750A456e091a77A197H4i77
228d078R18q43O90J178N83C0O56R16l83b767A644b550M55M79F79@f18n66o72m49
208b305l270b614N78P45m67e07J25J22CM20J55Q46a037C72b882m359c301i77j539
189b516k77i62A11P60O90J459J83K53j98d784J629j062J411l1380m7872m3170
173a25228b6777E179p70l53n99n72m5oP0J52P7G45b971B634b334i14B449c530
154A183b765n49a370m972J304M4K160p4M29L51f54b72m2187a1741cm05q202j5784
136b4394J681Q744L988a847A066L30c983A517a96n213e75E80e24j616k225q12
120e177J30K81J377N14a319j74l194a255d07J25D89A41o1b02n052f26l80o1k42
101a309k238J653m709a452l18l73m85k66q2L32M09j170l077b534I72M61K49k97
83A385K6F82F4a1411o6152c6265a2031K085k149d468d56D10c40n720a273M55j087
66a905k859K347P02L63M69a24D3b32l098a415n44p67mP3r18k53e24j60K92j1l439
45c842f02r3j12m399a966e8m20k497a241E71J79J82A67N38B92b35k69j557l062
26e123e89C0K76c591J770K37l884b387q75a543L64n99j144j356b111J038B42b916
7c96I11c553M61C145o65K469L437
0H386
##END NTUPLES=nD NMR SPECTRUM
##END=
